
 OpenBabel03142217213D

 38 40  0  0  0  0  0  0  0  0999 V2000
   -2.2826    0.6181    0.1924 C   0  0  0  0  0  0  0  0  0  0  0  0
   -2.2212   -0.7330    0.2439 C   0  0  0  0  0  0  0  0  0  0  0  0
   -0.9211   -1.5127    0.1866 C   0  0  0  0  0  0  0  0  0  0  0  0
   -0.9347   -2.7337    0.2330 O   0  0  0  0  0  0  0  0  0  0  0  0
    0.2733   -0.6808    0.1091 C   0  0  0  0  0  0  0  0  0  0  0  0
    0.1923    0.7373    0.0602 C   0  0  0  0  0  0  0  0  0  0  0  0
   -1.0551    1.4775    0.0454 C   0  0  0  0  0  0  0  0  0  0  0  0
   -1.1387    2.6923   -0.0915 O   0  0  0  0  0  0  0  0  0  0  0  0
    1.4795    1.2353    0.0494 C   0  0  0  0  0  0  0  0  0  0  0  0
    2.3407    0.1569    0.0516 N   0  0  0  0  0  0  0  0  0  0  0  0
    1.6277   -1.0477    0.0722 C   0  0  0  0  0  0  0  0  0  0  0  0
    2.2572   -2.3975    0.0337 C   0  0  0  0  0  0  0  0  0  0  0  0
    3.4234   -2.7054    0.7535 C   0  0  0  0  0  0  0  0  0  0  0  0
    4.0261   -3.9683    0.6747 C   0  0  0  0  0  0  0  0  0  0  0  0
    3.4334   -4.9783   -0.0719 C   0  0  0  0  0  0  0  0  0  0  0  0
    2.2586   -4.7134   -0.7643 C   0  0  0  0  0  0  0  0  0  0  0  0
    1.7012   -3.4283   -0.7393 C   0  0  0  0  0  0  0  0  0  0  0  0
    3.7869    0.2903    0.0236 C   0  0  0  0  0  0  0  0  0  0  0  0
    1.9547    2.6548    0.0435 C   0  0  0  0  0  0  0  0  0  0  0  0
   -3.4106   -1.6497    0.3782 C   0  0  0  0  0  0  0  0  0  0  0  0
   -3.5365    1.4478    0.2816 C   0  0  0  0  0  0  0  0  0  0  0  0
    3.8897   -1.9775    1.4065 H   0  0  0  0  0  0  0  0  0  0  0  0
    4.9502   -4.1639    1.2134 H   0  0  0  0  0  0  0  0  0  0  0  0
    3.8767   -5.9700   -0.1058 H   0  0  0  0  0  0  0  0  0  0  0  0
    1.7652   -5.5031   -1.3245 H   0  0  0  0  0  0  0  0  0  0  0  0
    0.8010   -3.2588   -1.3234 H   0  0  0  0  0  0  0  0  0  0  0  0
    4.0785    1.3101   -0.2367 H   0  0  0  0  0  0  0  0  0  0  0  0
    4.1995   -0.3859   -0.7272 H   0  0  0  0  0  0  0  0  0  0  0  0
    4.1703    0.0789    1.0246 H   0  0  0  0  0  0  0  0  0  0  0  0
    1.1363    3.3773    0.0570 H   0  0  0  0  0  0  0  0  0  0  0  0
    2.5482    2.8613   -0.8526 H   0  0  0  0  0  0  0  0  0  0  0  0
    2.5698    2.8519    0.9288 H   0  0  0  0  0  0  0  0  0  0  0  0
   -4.3608   -1.1330    0.5143 H   0  0  0  0  0  0  0  0  0  0  0  0
   -3.2874   -2.3064    1.2463 H   0  0  0  0  0  0  0  0  0  0  0  0
   -3.5092   -2.2726   -0.5178 H   0  0  0  0  0  0  0  0  0  0  0  0
   -4.4476    0.8672    0.4273 H   0  0  0  0  0  0  0  0  0  0  0  0
   -3.6751    2.0361   -0.6319 H   0  0  0  0  0  0  0  0  0  0  0  0
   -3.4677    2.1383    1.1303 H   0  0  0  0  0  0  0  0  0  0  0  0
  1  2  2  0  0  0  0
  1  7  1  0  0  0  0
  1 21  1  0  0  0  0
  2  3  1  0  0  0  0
  2 20  1  0  0  0  0
  3  4  2  0  0  0  0
  3  5  1  0  0  0  0
  5  6  1  0  0  0  0
  5 11  2  0  0  0  0
  6  7  1  0  0  0  0
  6  9  2  0  0  0  0
  7  8  2  0  0  0  0
  9 10  1  0  0  0  0
  9 19  1  0  0  0  0
 10 11  1  0  0  0  0
 10 18  1  0  0  0  0
 11 12  1  0  0  0  0
 12 13  1  0  0  0  0
 12 17  2  0  0  0  0
 13 14  2  0  0  0  0
 13 22  1  0  0  0  0
 14 15  1  0  0  0  0
 14 23  1  0  0  0  0
 15 16  2  0  0  0  0
 15 24  1  0  0  0  0
 16 17  1  0  0  0  0
 16 25  1  0  0  0  0
 17 26  1  0  0  0  0
 18 27  1  0  0  0  0
 18 28  1  0  0  0  0
 18 29  1  0  0  0  0
 19 30  1  0  0  0  0
 19 31  1  0  0  0  0
 19 32  1  0  0  0  0
 20 33  1  0  0  0  0
 20 34  1  0  0  0  0
 20 35  1  0  0  0  0
 21 36  1  0  0  0  0
 21 37  1  0  0  0  0
 21 38  1  0  0  0  0
M  END
$$$$
