
 OpenBabel03142217213D

 24 25  0  0  1  0  0  0  0  0999 V2000
    6.3726   -0.9612   -0.8362 N   0  0  0  0  0  0  0  0  0  0  0  0
    6.2760   -0.9380    0.5296 C   0  0  0  0  0  0  0  0  0  0  0  0
    5.0940   -0.9121    1.1557 C   0  0  0  0  0  0  0  0  0  0  0  0
    3.7783   -0.8848    0.3683 C   0  0  2  0  0  0  0  0  0  0  0  0
    4.0210   -0.9090   -1.1424 C   0  0  0  0  0  0  0  0  0  0  0  0
    5.2659   -0.9445   -1.6431 C   0  0  0  0  0  0  0  0  0  0  0  0
    2.8454    0.3006    0.7917 C   0  0  1  0  0  0  0  0  0  0  0  0
    2.4368    0.1543    2.2608 C   0  0  0  0  0  0  0  0  0  0  0  0
    2.8377    1.0531    3.1734 C   0  0  0  0  0  0  0  0  0  0  0  0
    3.5633    2.1607    2.8236 N   0  0  0  0  0  0  0  0  0  0  0  0
    3.8203    2.4788    1.5162 C   0  0  0  0  0  0  0  0  0  0  0  0
    3.4781    1.6612    0.5090 C   0  0  0  0  0  0  0  0  0  0  0  0
    7.2932   -0.9883   -1.2593 H   0  0  0  0  0  0  0  0  0  0  0  0
    7.2196   -0.9380    1.0675 H   0  0  0  0  0  0  0  0  0  0  0  0
    5.0509   -0.8824    2.2380 H   0  0  0  0  0  0  0  0  0  0  0  0
    3.2566   -1.8203    0.6078 H   0  0  0  0  0  0  0  0  0  0  0  0
    3.1623   -0.9013   -1.8051 H   0  0  0  0  0  0  0  0  0  0  0  0
    5.4702   -0.9642   -2.7091 H   0  0  0  0  0  0  0  0  0  0  0  0
    1.9183    0.2496    0.2023 H   0  0  0  0  0  0  0  0  0  0  0  0
    1.8546   -0.7118    2.5540 H   0  0  0  0  0  0  0  0  0  0  0  0
    2.6135    0.9580    4.2303 H   0  0  0  0  0  0  0  0  0  0  0  0
    3.9029    2.7787    3.5513 H   0  0  0  0  0  0  0  0  0  0  0  0
    4.3141    3.4305    1.3526 H   0  0  0  0  0  0  0  0  0  0  0  0
    3.6805    1.9358   -0.5200 H   0  0  0  0  0  0  0  0  0  0  0  0
  1  2  1  0  0  0  0
  1  6  1  0  0  0  0
  1 13  1  0  0  0  0
  2  3  2  0  0  0  0
  2 14  1  0  0  0  0
  3  4  1  0  0  0  0
  3 15  1  0  0  0  0
  4  5  1  0  0  0  0
  4 16  1  1  0  0  0
  5  6  2  0  0  0  0
  5 17  1  0  0  0  0
  6 18  1  0  0  0  0
  7  8  1  0  0  0  0
  7 12  1  0  0  0  0
  7  4  1  0  0  0  0
  7 19  1  6  0  0  0
  8  9  2  0  0  0  0
  8 20  1  0  0  0  0
  9 10  1  0  0  0  0
  9 21  1  0  0  0  0
 10 11  1  0  0  0  0
 10 22  1  0  0  0  0
 11 12  2  0  0  0  0
 11 23  1  0  0  0  0
 12 24  1  0  0  0  0
M  END
$$$$
