
 OpenBabel03142217213D

 27 29  0  0  0  0  0  0  0  0999 V2000
    1.7881  -10.9465    5.7166 C   0  0  0  0  0  0  0  0  0  0  0  0
    3.1562  -10.4256    5.7704 C   0  0  0  0  0  0  0  0  0  0  0  0
    3.2803   -9.0767    5.7732 C   0  0  0  0  0  0  0  0  0  0  0  0
    2.3687   -8.3260    4.8718 C   0  0  0  0  0  0  0  0  0  0  0  0
    1.1380   -8.9599    4.5377 N   0  0  0  0  0  0  0  0  0  0  0  0
    0.8571  -10.2076    5.0888 C   0  0  0  0  0  0  0  0  0  0  0  0
    0.3156   -8.3356    3.6012 C   0  0  0  0  0  0  0  0  0  0  0  0
    0.6768   -7.2033    2.9454 C   0  0  0  0  0  0  0  0  0  0  0  0
    1.9157   -6.5851    3.2461 N   0  0  0  0  0  0  0  0  0  0  0  0
    2.7101   -7.1412    4.3075 C   0  0  0  0  0  0  0  0  0  0  0  0
    3.9205   -6.4065    4.6806 C   0  0  0  0  0  0  0  0  0  0  0  0
    4.4567   -5.5163    3.8347 C   0  0  0  0  0  0  0  0  0  0  0  0
    3.8381   -5.3037    2.5447 C   0  0  0  0  0  0  0  0  0  0  0  0
    2.5815   -5.7377    2.3519 C   0  0  0  0  0  0  0  0  0  0  0  0
   -0.2254   -6.6438    1.8859 C   0  0  0  0  0  0  0  0  0  0  0  0
    1.5793  -11.9142    6.1541 H   0  0  0  0  0  0  0  0  0  0  0  0
    3.7049  -10.9425    4.9699 H   0  0  0  0  0  0  0  0  0  0  0  0
    3.1973   -8.6117    6.7594 H   0  0  0  0  0  0  0  0  0  0  0  0
   -0.1649  -10.5520    4.9789 H   0  0  0  0  0  0  0  0  0  0  0  0
   -0.6015   -8.8671    3.3851 H   0  0  0  0  0  0  0  0  0  0  0  0
    4.3424   -6.5478    5.6725 H   0  0  0  0  0  0  0  0  0  0  0  0
    5.3053   -4.9028    4.1109 H   0  0  0  0  0  0  0  0  0  0  0  0
    4.3988   -4.8142    1.7579 H   0  0  0  0  0  0  0  0  0  0  0  0
    2.0698   -5.5409    1.4191 H   0  0  0  0  0  0  0  0  0  0  0  0
   -1.1735   -7.1884    1.8190 H   0  0  0  0  0  0  0  0  0  0  0  0
    0.2535   -6.7183    0.9044 H   0  0  0  0  0  0  0  0  0  0  0  0
   -0.4609   -5.5944    2.0907 H   0  0  0  0  0  0  0  0  0  0  0  0
  1  2  1  0  0  0  0
  1  6  2  0  0  0  0
  1 16  1  0  0  0  0
  2  3  2  0  0  0  0
  2 17  1  0  0  0  0
  3  4  1  0  0  0  0
  3 18  1  0  0  0  0
  4  5  1  0  0  0  0
  4 10  2  0  0  0  0
  5  6  1  0  0  0  0
  5  7  1  0  0  0  0
  6 19  1  0  0  0  0
  7  8  2  0  0  0  0
  7 20  1  0  0  0  0
  8  9  1  0  0  0  0
  8 15  1  0  0  0  0
  9 10  1  0  0  0  0
  9 14  1  0  0  0  0
 10 11  1  0  0  0  0
 11 12  2  0  0  0  0
 11 21  1  0  0  0  0
 12 13  1  0  0  0  0
 12 22  1  0  0  0  0
 13 14  2  0  0  0  0
 13 23  1  0  0  0  0
 14 24  1  0  0  0  0
 15 25  1  0  0  0  0
 15 26  1  0  0  0  0
 15 27  1  0  0  0  0
M  END
$$$$
