
 OpenBabel03142217213D

 29 32  0  0  0  0  0  0  0  0999 V2000
   -4.8761   -0.1940    0.0046 C   0  0  0  0  0  0  0  0  0  0  0  0
   -3.7829   -1.0682    0.0056 C   0  0  0  0  0  0  0  0  0  0  0  0
   -2.4674   -0.5810   -0.0059 C   0  0  0  0  0  0  0  0  0  0  0  0
   -2.2712    0.8079   -0.0043 C   0  0  0  0  0  0  0  0  0  0  0  0
   -3.3700    1.6787   -0.0055 C   0  0  0  0  0  0  0  0  0  0  0  0
   -4.6691    1.1806   -0.0018 C   0  0  0  0  0  0  0  0  0  0  0  0
   -0.6663    1.5544   -0.0025 S   0  0  0  0  0  0  0  0  0  0  0  0
    0.4700    0.1587   -0.0052 C   0  0  0  0  0  0  0  0  0  0  0  0
   -0.0154   -1.1671   -0.0075 C   0  0  0  0  0  0  0  0  0  0  0  0
   -1.3890   -1.4802    0.0202 N   0  0  0  0  0  0  0  0  0  0  0  0
    0.9094   -2.2210    0.0018 C   0  0  0  0  0  0  0  0  0  0  0  0
    2.2835   -1.9739   -0.0006 C   0  0  0  0  0  0  0  0  0  0  0  0
    2.7809   -0.6634   -0.0028 C   0  0  0  0  0  0  0  0  0  0  0  0
    1.8780    0.4263   -0.0066 C   0  0  0  0  0  0  0  0  0  0  0  0
    2.4424    1.7295   -0.0082 C   0  0  0  0  0  0  0  0  0  0  0  0
    3.8203    1.9474   -0.0043 C   0  0  0  0  0  0  0  0  0  0  0  0
    4.6846    0.8648    0.0005 C   0  0  0  0  0  0  0  0  0  0  0  0
    4.1689   -0.4306    0.0006 C   0  0  0  0  0  0  0  0  0  0  0  0
   -5.8885   -0.5867    0.0104 H   0  0  0  0  0  0  0  0  0  0  0  0
   -3.9715   -2.1386    0.0157 H   0  0  0  0  0  0  0  0  0  0  0  0
   -3.2135    2.7554   -0.0064 H   0  0  0  0  0  0  0  0  0  0  0  0
   -5.5107    1.8680   -0.0013 H   0  0  0  0  0  0  0  0  0  0  0  0
   -1.6263   -2.4589   -0.0660 H   0  0  0  0  0  0  0  0  0  0  0  0
    0.5695   -3.2537    0.0112 H   0  0  0  0  0  0  0  0  0  0  0  0
    2.9682   -2.8196    0.0052 H   0  0  0  0  0  0  0  0  0  0  0  0
    1.8057    2.6120   -0.0107 H   0  0  0  0  0  0  0  0  0  0  0  0
    4.2042    2.9632   -0.0036 H   0  0  0  0  0  0  0  0  0  0  0  0
    5.7588    1.0290    0.0047 H   0  0  0  0  0  0  0  0  0  0  0  0
    4.8680   -1.2653    0.0050 H   0  0  0  0  0  0  0  0  0  0  0  0
  1  2  1  0  0  0  0
  1  6  2  0  0  0  0
  1 19  1  0  0  0  0
  2  3  2  0  0  0  0
  2 20  1  0  0  0  0
  3  4  1  0  0  0  0
  3 10  1  0  0  0  0
  4  5  2  0  0  0  0
  4  7  1  0  0  0  0
  5  6  1  0  0  0  0
  5 21  1  0  0  0  0
  6 22  1  0  0  0  0
  7  8  1  0  0  0  0
  8  9  1  0  0  0  0
  8 14  2  0  0  0  0
  9 10  1  0  0  0  0
  9 11  2  0  0  0  0
 10 23  1  0  0  0  0
 11 12  1  0  0  0  0
 11 24  1  0  0  0  0
 12 13  2  0  0  0  0
 12 25  1  0  0  0  0
 13 14  1  0  0  0  0
 13 18  1  0  0  0  0
 14 15  1  0  0  0  0
 15 16  2  0  0  0  0
 15 26  1  0  0  0  0
 16 17  1  0  0  0  0
 16 27  1  0  0  0  0
 17 18  2  0  0  0  0
 17 28  1  0  0  0  0
 18 29  1  0  0  0  0
M  END
$$$$
