
 OpenBabel03142217213D

 36 40  0  0  0  0  0  0  0  0999 V2000
    1.1170   -0.1319   -0.1672 C   0  0  0  0  0  0  0  0  0  0  0  0
    2.4061   -0.3816   -0.4124 C   0  0  0  0  0  0  0  0  0  0  0  0
    3.2608    0.6433   -0.8642 N   0  0  0  0  0  0  0  0  0  0  0  0
    2.8520    1.9974   -0.7118 C   0  0  0  0  0  0  0  0  0  0  0  0
    1.6100    2.2224    0.0290 C   0  0  0  0  0  0  0  0  0  0  0  0
    0.7753    1.2078    0.2672 C   0  0  0  0  0  0  0  0  0  0  0  0
    3.5333    3.0362   -1.2703 C   0  0  0  0  0  0  0  0  0  0  0  0
    4.6244    2.7347   -2.2143 C   0  0  0  0  0  0  0  0  0  0  0  0
    4.9708    1.2937   -2.4649 C   0  0  0  0  0  0  0  0  0  0  0  0
    4.2902    0.3645   -1.7671 C   0  0  0  0  0  0  0  0  0  0  0  0
    6.0051    0.8950   -3.4149 C   0  0  0  0  0  0  0  0  0  0  0  0
    6.5140    1.8137   -4.2466 C   0  0  0  0  0  0  0  0  0  0  0  0
    6.0241    3.1763   -4.1666 C   0  0  0  0  0  0  0  0  0  0  0  0
    5.2275    3.6699   -3.0005 C   0  0  0  0  0  0  0  0  0  0  0  0
    5.0974    5.1330   -2.8445 C   0  0  0  0  0  0  0  0  0  0  0  0
    5.3613    5.9199   -3.9110 C   0  0  0  0  0  0  0  0  0  0  0  0
    5.7580    5.3656   -5.1579 N   0  0  0  0  0  0  0  0  0  0  0  0
    6.1965    4.0437   -5.1828 C   0  0  0  0  0  0  0  0  0  0  0  0
    5.6597    6.1508   -6.3039 C   0  0  0  0  0  0  0  0  0  0  0  0
    5.3912    7.4656   -6.2673 C   0  0  0  0  0  0  0  0  0  0  0  0
    5.3008    8.1115   -4.9734 C   0  0  0  0  0  0  0  0  0  0  0  0
    5.2647    7.3800   -3.8355 C   0  0  0  0  0  0  0  0  0  0  0  0
    0.3522   -0.8857   -0.2781 H   0  0  0  0  0  0  0  0  0  0  0  0
    2.8270   -1.3827   -0.4612 H   0  0  0  0  0  0  0  0  0  0  0  0
    1.3761    3.2247    0.3791 H   0  0  0  0  0  0  0  0  0  0  0  0
   -0.1363    1.3362    0.8678 H   0  0  0  0  0  0  0  0  0  0  0  0
    3.1690    4.0543   -1.1383 H   0  0  0  0  0  0  0  0  0  0  0  0
    4.4641   -0.6954   -1.9335 H   0  0  0  0  0  0  0  0  0  0  0  0
    6.3228   -0.1395   -3.4678 H   0  0  0  0  0  0  0  0  0  0  0  0
    7.2676    1.5558   -4.9840 H   0  0  0  0  0  0  0  0  0  0  0  0
    4.8183    5.5442   -1.8808 H   0  0  0  0  0  0  0  0  0  0  0  0
    6.6926    3.7563   -6.1034 H   0  0  0  0  0  0  0  0  0  0  0  0
    5.7557    5.6114   -7.2405 H   0  0  0  0  0  0  0  0  0  0  0  0
    5.2592    8.0468   -7.1730 H   0  0  0  0  0  0  0  0  0  0  0  0
    5.2538    9.1963   -4.9475 H   0  0  0  0  0  0  0  0  0  0  0  0
    5.2179    7.8614   -2.8754 H   0  0  0  0  0  0  0  0  0  0  0  0
  1  2  2  0  0  0  0
  1  6  1  0  0  0  0
  1 23  1  0  0  0  0
  2  3  1  0  0  0  0
  2 24  1  0  0  0  0
  3  4  1  0  0  0  0
  3 10  1  0  0  0  0
  4  5  1  0  0  0  0
  4  7  2  0  0  0  0
  5  6  2  0  0  0  0
  5 25  1  0  0  0  0
  6 26  1  0  0  0  0
  7  8  1  0  0  0  0
  7 27  1  0  0  0  0
  8  9  1  0  0  0  0
  8 14  2  0  0  0  0
  9 10  2  0  0  0  0
  9 11  1  0  0  0  0
 10 28  1  0  0  0  0
 11 12  2  0  0  0  0
 11 29  1  0  0  0  0
 12 13  1  0  0  0  0
 12 30  1  0  0  0  0
 13 14  1  0  0  0  0
 13 18  2  0  0  0  0
 14 15  1  0  0  0  0
 15 16  2  0  0  0  0
 15 31  1  0  0  0  0
 16 17  1  0  0  0  0
 16 22  1  0  0  0  0
 17 18  1  0  0  0  0
 17 19  1  0  0  0  0
 18 32  1  0  0  0  0
 19 20  2  0  0  0  0
 19 33  1  0  0  0  0
 20 21  1  0  0  0  0
 20 34  1  0  0  0  0
 21 22  2  0  0  0  0
 21 35  1  0  0  0  0
 22 36  1  0  0  0  0
M  END
$$$$
