
 OpenBabel03142217213D

 23 25  0  0  0  0  0  0  0  0999 V2000
    3.6822    0.8240   -0.0013 C   0  0  0  0  0  0  0  0  0  0  0  0
    3.8128   -0.5601   -0.0008 C   0  0  0  0  0  0  0  0  0  0  0  0
    2.6730   -1.3611   -0.0021 C   0  0  0  0  0  0  0  0  0  0  0  0
    1.3934   -0.7847   -0.0028 C   0  0  0  0  0  0  0  0  0  0  0  0
    1.2523    0.6139   -0.0004 C   0  0  0  0  0  0  0  0  0  0  0  0
    2.4116    1.4063   -0.0020 C   0  0  0  0  0  0  0  0  0  0  0  0
   -0.0075    1.2383   -0.0093 N   0  0  0  0  0  0  0  0  0  0  0  0
   -1.2623    0.6083    0.0003 C   0  0  0  0  0  0  0  0  0  0  0  0
   -1.3946   -0.7928   -0.0021 C   0  0  0  0  0  0  0  0  0  0  0  0
    0.0034   -1.9006   -0.0059 S   0  0  0  0  0  0  0  0  0  0  0  0
   -2.6683   -1.3810   -0.0009 C   0  0  0  0  0  0  0  0  0  0  0  0
   -3.8091   -0.5829    0.0006 C   0  0  0  0  0  0  0  0  0  0  0  0
   -3.6944    0.8037    0.0010 C   0  0  0  0  0  0  0  0  0  0  0  0
   -2.4261    1.3934    0.0005 C   0  0  0  0  0  0  0  0  0  0  0  0
   -5.6866   -1.4723    0.0009 I   0  0  0  0  0  0  0  0  0  0  0  0
    4.5692    1.4523   -0.0019 H   0  0  0  0  0  0  0  0  0  0  0  0
    4.7982   -1.0192   -0.0010 H   0  0  0  0  0  0  0  0  0  0  0  0
    2.7862   -2.4429   -0.0032 H   0  0  0  0  0  0  0  0  0  0  0  0
    2.3357    2.4904   -0.0043 H   0  0  0  0  0  0  0  0  0  0  0  0
   -0.0074    2.2480    0.0232 H   0  0  0  0  0  0  0  0  0  0  0  0
   -2.7592   -2.4647   -0.0017 H   0  0  0  0  0  0  0  0  0  0  0  0
   -4.5773    1.4379    0.0010 H   0  0  0  0  0  0  0  0  0  0  0  0
   -2.3556    2.4776   -0.0016 H   0  0  0  0  0  0  0  0  0  0  0  0
  1  2  1  0  0  0  0
  1  6  2  0  0  0  0
  1 16  1  0  0  0  0
  2  3  2  0  0  0  0
  2 17  1  0  0  0  0
  3  4  1  0  0  0  0
  3 18  1  0  0  0  0
  4  5  2  0  0  0  0
  4 10  1  0  0  0  0
  5  6  1  0  0  0  0
  5  7  1  0  0  0  0
  6 19  1  0  0  0  0
  7  8  1  0  0  0  0
  7 20  1  0  0  0  0
  8  9  1  0  0  0  0
  8 14  2  0  0  0  0
  9 10  1  0  0  0  0
  9 11  2  0  0  0  0
 11 12  1  0  0  0  0
 11 21  1  0  0  0  0
 12 13  2  0  0  0  0
 12 15  1  0  0  0  0
 13 14  1  0  0  0  0
 13 22  1  0  0  0  0
 14 23  1  0  0  0  0
M  END
$$$$
