
 OpenBabel03142217213D

 37 41  0  0  0  0  0  0  0  0999 V2000
   -5.4085   -0.2304    0.9511 C   0  0  0  0  0  0  0  0  0  0  0  0
   -4.2515    0.4639    1.3188 C   0  0  0  0  0  0  0  0  0  0  0  0
   -3.0894    0.3121    0.5597 C   0  0  0  0  0  0  0  0  0  0  0  0
   -3.0400   -0.6944   -0.4074 C   0  0  0  0  0  0  0  0  0  0  0  0
   -4.2059   -1.4092   -0.7120 C   0  0  0  0  0  0  0  0  0  0  0  0
   -5.4099   -0.7937   -0.3290 C   0  0  0  0  0  0  0  0  0  0  0  0
   -6.0390    0.3146   -1.3006 C   0  0  0  0  0  0  0  0  0  0  0  0
   -7.0305    1.2775   -0.6204 C   0  0  0  0  0  0  0  0  0  0  0  0
   -7.3670    1.1853    0.6812 C   0  0  0  0  0  0  0  0  0  0  0  0
   -6.7607    0.1047    1.5255 C   0  0  0  0  0  0  0  0  0  0  0  0
   -4.1148   -2.8460   -0.7857 N   0  0  0  0  0  0  0  0  0  0  0  0
   -2.9194   -3.6319   -0.6579 C   0  0  0  0  0  0  0  0  0  0  0  0
   -1.6567   -2.9823   -0.6636 C   0  0  0  0  0  0  0  0  0  0  0  0
   -1.4636   -1.2339   -0.9995 S   0  0  0  0  0  0  0  0  0  0  0  0
   -0.4741   -3.6870   -0.4283 C   0  0  0  0  0  0  0  0  0  0  0  0
   -0.4969   -5.0532   -0.2112 C   0  0  0  0  0  0  0  0  0  0  0  0
   -1.7111   -5.7462   -0.2136 C   0  0  0  0  0  0  0  0  0  0  0  0
   -2.9495   -5.0691   -0.4081 C   0  0  0  0  0  0  0  0  0  0  0  0
   -4.1088   -5.8835   -0.3220 C   0  0  0  0  0  0  0  0  0  0  0  0
   -4.0364   -7.2781   -0.1189 C   0  0  0  0  0  0  0  0  0  0  0  0
   -2.8027   -7.9009    0.0282 C   0  0  0  0  0  0  0  0  0  0  0  0
   -1.6582   -7.1416   -0.0077 C   0  0  0  0  0  0  0  0  0  0  0  0
   -4.2757    1.1846    2.1287 H   0  0  0  0  0  0  0  0  0  0  0  0
   -2.2039    0.8937    0.7987 H   0  0  0  0  0  0  0  0  0  0  0  0
   -6.5107   -0.1601   -2.1640 H   0  0  0  0  0  0  0  0  0  0  0  0
   -5.2154    0.9495   -1.6639 H   0  0  0  0  0  0  0  0  0  0  0  0
   -7.4168    2.1085   -1.2063 H   0  0  0  0  0  0  0  0  0  0  0  0
   -8.0250    1.9035    1.1607 H   0  0  0  0  0  0  0  0  0  0  0  0
   -7.4083   -0.7815    1.4816 H   0  0  0  0  0  0  0  0  0  0  0  0
   -6.6732    0.3886    2.5781 H   0  0  0  0  0  0  0  0  0  0  0  0
   -4.9554   -3.3295   -1.0688 H   0  0  0  0  0  0  0  0  0  0  0  0
    0.4830   -3.1714   -0.4092 H   0  0  0  0  0  0  0  0  0  0  0  0
    0.4404   -5.5682   -0.0363 H   0  0  0  0  0  0  0  0  0  0  0  0
   -5.0952   -5.4448   -0.4128 H   0  0  0  0  0  0  0  0  0  0  0  0
   -4.9442   -7.8729   -0.0708 H   0  0  0  0  0  0  0  0  0  0  0  0
   -2.7430   -8.9831    0.1706 H   0  0  0  0  0  0  0  0  0  0  0  0
   -0.6991   -7.6384    0.1233 H   0  0  0  0  0  0  0  0  0  0  0  0
  1  2  1  0  0  0  0
  1  6  2  0  0  0  0
  1 10  1  0  0  0  0
  2  3  2  0  0  0  0
  2 23  1  0  0  0  0
  3  4  1  0  0  0  0
  3 24  1  0  0  0  0
  4  5  2  0  0  0  0
  4 14  1  0  0  0  0
  5  6  1  0  0  0  0
  5 11  1  0  0  0  0
  6  7  1  0  0  0  0
  7  8  1  0  0  0  0
  7 25  1  0  0  0  0
  7 26  1  0  0  0  0
  8  9  2  0  0  0  0
  8 27  1  0  0  0  0
  9 10  1  0  0  0  0
  9 28  1  0  0  0  0
 10 29  1  0  0  0  0
 10 30  1  0  0  0  0
 11 12  1  0  0  0  0
 11 31  1  0  0  0  0
 12 13  1  0  0  0  0
 12 18  2  0  0  0  0
 13 14  1  0  0  0  0
 13 15  2  0  0  0  0
 15 16  1  0  0  0  0
 15 32  1  0  0  0  0
 16 17  2  0  0  0  0
 16 33  1  0  0  0  0
 17 18  1  0  0  0  0
 17 22  1  0  0  0  0
 18 19  1  0  0  0  0
 19 20  2  0  0  0  0
 19 34  1  0  0  0  0
 20 21  1  0  0  0  0
 20 35  1  0  0  0  0
 21 22  2  0  0  0  0
 21 36  1  0  0  0  0
 22 37  1  0  0  0  0
M  END
$$$$
