
 OpenBabel03142217213D

 33 34  0  0  1  0  0  0  0  0999 V2000
   -1.0206    0.2676    0.3090 N   0  0  0  0  0  0  0  0  0  0  0  0
   -0.4768   -1.0060    0.1984 C   0  0  0  0  0  0  0  0  0  0  0  0
    0.8180   -1.2275   -0.0700 C   0  0  0  0  0  0  0  0  0  0  0  0
    1.7563   -0.0623   -0.3422 C   0  0  2  0  0  0  0  0  0  0  0  0
    1.1586    1.2580    0.1391 C   0  0  0  0  0  0  0  0  0  0  0  0
   -0.1553    1.3496    0.3903 C   0  0  0  0  0  0  0  0  0  0  0  0
    2.1376    0.0532   -1.8586 C   0  0  2  0  0  0  0  0  0  0  0  0
    0.9386    0.2713   -2.7643 C   0  0  0  0  0  0  0  0  0  0  0  0
    0.7808   -0.4160   -3.8987 C   0  0  0  0  0  0  0  0  0  0  0  0
    1.6813   -1.3710   -4.3548 N   0  0  0  0  0  0  0  0  0  0  0  0
    2.7516   -1.7488   -3.5204 C   0  0  0  0  0  0  0  0  0  0  0  0
    2.9859   -1.1121   -2.3493 C   0  0  0  0  0  0  0  0  0  0  0  0
    3.6688   -2.8807   -3.9105 C   0  0  0  0  0  0  0  0  0  0  0  0
    1.5169   -1.9025   -5.7102 C   0  0  0  0  0  0  0  0  0  0  0  0
   -2.4629    0.4804    0.2022 C   0  0  0  0  0  0  0  0  0  0  0  0
   -1.1764   -1.8266    0.3303 H   0  0  0  0  0  0  0  0  0  0  0  0
    1.2037   -2.2369   -0.1520 H   0  0  0  0  0  0  0  0  0  0  0  0
    2.6667   -0.2308    0.2496 H   0  0  0  0  0  0  0  0  0  0  0  0
    1.7997    2.1306    0.1978 H   0  0  0  0  0  0  0  0  0  0  0  0
   -0.6244    2.2987    0.6499 H   0  0  0  0  0  0  0  0  0  0  0  0
    2.7695    0.9482   -1.9623 H   0  0  0  0  0  0  0  0  0  0  0  0
    0.1874    1.0041   -2.4736 H   0  0  0  0  0  0  0  0  0  0  0  0
   -0.0851   -0.2481   -4.5294 H   0  0  0  0  0  0  0  0  0  0  0  0
    3.8233   -1.4069   -1.7250 H   0  0  0  0  0  0  0  0  0  0  0  0
    3.5260   -3.2242   -4.9364 H   0  0  0  0  0  0  0  0  0  0  0  0
    3.5015   -3.7412   -3.2537 H   0  0  0  0  0  0  0  0  0  0  0  0
    4.7159   -2.5731   -3.8229 H   0  0  0  0  0  0  0  0  0  0  0  0
    0.7072   -1.4012   -6.2550 H   0  0  0  0  0  0  0  0  0  0  0  0
    1.2836   -2.9723   -5.6781 H   0  0  0  0  0  0  0  0  0  0  0  0
    2.4306   -1.7446   -6.2947 H   0  0  0  0  0  0  0  0  0  0  0  0
   -2.9986   -0.4508   -0.0138 H   0  0  0  0  0  0  0  0  0  0  0  0
   -2.6783    1.1740   -0.6192 H   0  0  0  0  0  0  0  0  0  0  0  0
   -2.8600    0.9004    1.1315 H   0  0  0  0  0  0  0  0  0  0  0  0
  1  2  1  0  0  0  0
  1  6  1  0  0  0  0
  1 15  1  0  0  0  0
  2  3  2  0  0  0  0
  2 16  1  0  0  0  0
  3  4  1  0  0  0  0
  3 17  1  0  0  0  0
  4  5  1  0  0  0  0
  4  7  1  0  0  0  0
  4 18  1  1  0  0  0
  5  6  2  0  0  0  0
  5 19  1  0  0  0  0
  6 20  1  0  0  0  0
  7  8  1  0  0  0  0
  7 12  1  0  0  0  0
  7 21  1  6  0  0  0
  8  9  2  0  0  0  0
  8 22  1  0  0  0  0
  9 10  1  0  0  0  0
  9 23  1  0  0  0  0
 10 11  1  0  0  0  0
 10 14  1  0  0  0  0
 11 12  2  0  0  0  0
 11 13  1  0  0  0  0
 12 24  1  0  0  0  0
 13 25  1  0  0  0  0
 13 26  1  0  0  0  0
 13 27  1  0  0  0  0
 14 28  1  0  0  0  0
 14 29  1  0  0  0  0
 14 30  1  0  0  0  0
 15 31  1  0  0  0  0
 15 32  1  0  0  0  0
 15 33  1  0  0  0  0
M  END
$$$$
