
 OpenBabel03142217213D

 34 36  0  0  0  0  0  0  0  0999 V2000
   -0.5482    1.2022    0.1465 C   0  0  0  0  0  0  0  0  0  0  0  0
    0.6810    0.8326   -0.2266 C   0  0  0  0  0  0  0  0  0  0  0  0
    1.0740   -0.4892   -0.3079 N   0  0  0  0  0  0  0  0  0  0  0  0
    0.2420   -1.5070    0.2302 C   0  0  0  0  0  0  0  0  0  0  0  0
   -1.0213   -1.2417    0.6062 C   0  0  0  0  0  0  0  0  0  0  0  0
   -1.5886    0.1584    0.4832 C   0  0  0  0  0  0  0  0  0  0  0  0
    0.7900   -2.8663    0.0746 C   0  0  0  0  0  0  0  0  0  0  0  0
    1.2455   -3.5934    1.1178 C   0  0  0  0  0  0  0  0  0  0  0  0
    2.1294   -4.8077    0.8978 C   0  0  0  0  0  0  0  0  0  0  0  0
    2.2657   -5.1985   -0.5500 C   0  0  0  0  0  0  0  0  0  0  0  0
    1.7579   -4.4209   -1.5149 C   0  0  0  0  0  0  0  0  0  0  0  0
    1.1157   -3.2176   -1.2539 N   0  0  0  0  0  0  0  0  0  0  0  0
    1.3387   -2.0641   -2.1725 C   0  0  0  0  0  0  0  0  0  0  0  0
    2.0303   -0.9359   -1.3482 C   0  0  0  0  0  0  0  0  0  0  0  0
    3.0704   -6.3701   -0.9694 C   0  0  0  0  0  0  0  0  0  0  0  0
    3.1808   -6.7557   -2.1213 O   0  0  0  0  0  0  0  0  0  0  0  0
    3.7058   -6.9012    0.1049 O   0  0  0  0  0  0  0  0  0  0  0  0
    4.5962   -7.9669   -0.2244 C   0  0  0  0  0  0  0  0  0  0  0  0
   -0.8293    2.2445    0.1623 H   0  0  0  0  0  0  0  0  0  0  0  0
    1.4419    1.5489   -0.5137 H   0  0  0  0  0  0  0  0  0  0  0  0
   -1.7003   -2.0364    0.8842 H   0  0  0  0  0  0  0  0  0  0  0  0
   -2.0835    0.4360    1.4187 H   0  0  0  0  0  0  0  0  0  0  0  0
   -2.3439    0.1635   -0.3078 H   0  0  0  0  0  0  0  0  0  0  0  0
    1.1251   -3.2390    2.1338 H   0  0  0  0  0  0  0  0  0  0  0  0
    1.7373   -5.6434    1.4805 H   0  0  0  0  0  0  0  0  0  0  0  0
    3.1279   -4.5639    1.2893 H   0  0  0  0  0  0  0  0  0  0  0  0
    1.8689   -4.6442   -2.5739 H   0  0  0  0  0  0  0  0  0  0  0  0
    0.3682   -1.7204   -2.5558 H   0  0  0  0  0  0  0  0  0  0  0  0
    1.9597   -2.3465   -3.0267 H   0  0  0  0  0  0  0  0  0  0  0  0
    2.3170   -0.1110   -2.0049 H   0  0  0  0  0  0  0  0  0  0  0  0
    2.9370   -1.3206   -0.8649 H   0  0  0  0  0  0  0  0  0  0  0  0
    5.0521   -8.3241    0.7032 H   0  0  0  0  0  0  0  0  0  0  0  0
    5.3939   -7.6119   -0.8861 H   0  0  0  0  0  0  0  0  0  0  0  0
    4.0503   -8.7961   -0.6850 H   0  0  0  0  0  0  0  0  0  0  0  0
  1  2  2  0  0  0  0
  1  6  1  0  0  0  0
  1 19  1  0  0  0  0
  2  3  1  0  0  0  0
  2 20  1  0  0  0  0
  3  4  1  0  0  0  0
  3 14  1  0  0  0  0
  4  5  2  0  0  0  0
  4  7  1  0  0  0  0
  5  6  1  0  0  0  0
  5 21  1  0  0  0  0
  6 22  1  0  0  0  0
  6 23  1  0  0  0  0
  7  8  2  0  0  0  0
  7 12  1  0  0  0  0
  8  9  1  0  0  0  0
  8 24  1  0  0  0  0
  9 10  1  0  0  0  0
  9 25  1  0  0  0  0
  9 26  1  0  0  0  0
 10 11  2  0  0  0  0
 10 15  1  0  0  0  0
 11 12  1  0  0  0  0
 11 27  1  0  0  0  0
 12 13  1  0  0  0  0
 13 14  1  0  0  0  0
 13 28  1  0  0  0  0
 13 29  1  0  0  0  0
 14 30  1  0  0  0  0
 14 31  1  0  0  0  0
 15 16  2  0  0  0  0
 15 17  1  0  0  0  0
 17 18  1  0  0  0  0
 18 32  1  0  0  0  0
 18 33  1  0  0  0  0
 18 34  1  0  0  0  0
M  END
$$$$
