
 OpenBabel03142217213D

 36 37  0  0  1  0  0  0  0  0999 V2000
    3.0541   -3.3520   -3.7198 N   0  0  0  0  0  0  0  0  0  0  0  0
    3.5702   -2.1230   -4.1279 C   0  0  0  0  0  0  0  0  0  0  0  0
    3.4918   -1.0039   -3.3942 C   0  0  0  0  0  0  0  0  0  0  0  0
    2.8477   -0.9888   -2.0091 C   0  0  1  0  0  0  0  0  0  0  0  0
    2.2152   -2.3388   -1.6913 C   0  0  0  0  0  0  0  0  0  0  0  0
    2.3608   -3.3938   -2.5101 C   0  0  0  0  0  0  0  0  0  0  0  0
    1.8680    0.2155   -1.7753 C   0  0  1  0  0  0  0  0  0  0  0  0
    2.6187    1.5388   -1.8938 C   0  0  0  0  0  0  0  0  0  0  0  0
    2.4488    2.3243   -2.9696 C   0  0  0  0  0  0  0  0  0  0  0  0
    1.5352    2.0364   -3.9829 N   0  0  0  0  0  0  0  0  0  0  0  0
    0.6078    1.0158   -3.7581 C   0  0  0  0  0  0  0  0  0  0  0  0
    0.6839    0.1684   -2.7222 C   0  0  0  0  0  0  0  0  0  0  0  0
    1.8389    2.4339   -5.3851 C   0  0  0  0  0  0  0  0  0  0  0  0
    0.7156    3.2535   -5.9940 C   0  0  0  0  0  0  0  0  0  0  0  0
    0.5126    3.3485   -7.1963 O   0  0  0  0  0  0  0  0  0  0  0  0
   -0.0116    3.9313   -5.0711 O   0  0  0  0  0  0  0  0  0  0  0  0
    3.5978   -4.6097   -4.3122 C   0  0  0  0  0  0  0  0  0  0  0  0
    3.1506   -4.8179   -5.7516 C   0  0  0  0  0  0  0  0  0  0  0  0
    3.7163   -5.5554   -6.5438 O   0  0  0  0  0  0  0  0  0  0  0  0
    2.0085   -4.1489   -6.0634 O   0  0  0  0  0  0  0  0  0  0  0  0
    4.0721   -2.1219   -5.0936 H   0  0  0  0  0  0  0  0  0  0  0  0
    3.9302   -0.0860   -3.7721 H   0  0  0  0  0  0  0  0  0  0  0  0
    3.6739   -0.8677   -1.2928 H   0  0  0  0  0  0  0  0  0  0  0  0
    1.6841   -2.4475   -0.7514 H   0  0  0  0  0  0  0  0  0  0  0  0
    1.9509   -4.3654   -2.2448 H   0  0  0  0  0  0  0  0  0  0  0  0
    1.4729    0.1654   -0.7512 H   0  0  0  0  0  0  0  0  0  0  0  0
    3.3474    1.7931   -1.1304 H   0  0  0  0  0  0  0  0  0  0  0  0
    3.0426    3.2229   -3.1142 H   0  0  0  0  0  0  0  0  0  0  0  0
   -0.1842    0.9292   -4.4972 H   0  0  0  0  0  0  0  0  0  0  0  0
   -0.0586   -0.6105   -2.5864 H   0  0  0  0  0  0  0  0  0  0  0  0
    1.9905    1.5302   -5.9869 H   0  0  0  0  0  0  0  0  0  0  0  0
    2.7519    3.0382   -5.4317 H   0  0  0  0  0  0  0  0  0  0  0  0
    0.2858    3.6620   -4.1715 H   0  0  0  0  0  0  0  0  0  0  0  0
    3.2645   -5.4843   -3.7413 H   0  0  0  0  0  0  0  0  0  0  0  0
    4.6931   -4.5714   -4.2847 H   0  0  0  0  0  0  0  0  0  0  0  0
    1.7478   -3.5913   -5.2972 H   0  0  0  0  0  0  0  0  0  0  0  0
  1  2  1  0  0  0  0
  1  6  1  0  0  0  0
  1 17  1  0  0  0  0
  2  3  2  0  0  0  0
  2 21  1  0  0  0  0
  3  4  1  0  0  0  0
  3 22  1  0  0  0  0
  4  5  1  0  0  0  0
  4 23  1  6  0  0  0
  5  6  2  0  0  0  0
  5 24  1  0  0  0  0
  6 25  1  0  0  0  0
  7  8  1  0  0  0  0
  7 12  1  0  0  0  0
  7  4  1  0  0  0  0
  7 26  1  1  0  0  0
  8  9  2  0  0  0  0
  8 27  1  0  0  0  0
  9 10  1  0  0  0  0
  9 28  1  0  0  0  0
 10 11  1  0  0  0  0
 10 13  1  0  0  0  0
 11 12  2  0  0  0  0
 11 29  1  0  0  0  0
 12 30  1  0  0  0  0
 13 14  1  0  0  0  0
 13 31  1  0  0  0  0
 13 32  1  0  0  0  0
 14 15  2  0  0  0  0
 14 16  1  0  0  0  0
 16 33  1  0  0  0  0
 17 18  1  0  0  0  0
 17 34  1  0  0  0  0
 17 35  1  0  0  0  0
 18 19  2  0  0  0  0
 18 20  1  0  0  0  0
 20 36  1  0  0  0  0
M  END
$$$$
