
 OpenBabel03142217213D

 34 36  0  0  0  0  0  0  0  0999 V2000
   -0.5562    1.2170    0.1809 C   0  0  0  0  0  0  0  0  0  0  0  0
    0.7014    0.9060   -0.1884 C   0  0  0  0  0  0  0  0  0  0  0  0
    1.0722   -0.4320   -0.3507 N   0  0  0  0  0  0  0  0  0  0  0  0
    0.2797   -1.4673    0.1945 C   0  0  0  0  0  0  0  0  0  0  0  0
   -0.9818   -1.2323    0.5942 C   0  0  0  0  0  0  0  0  0  0  0  0
   -1.5790    0.1470    0.4711 C   0  0  0  0  0  0  0  0  0  0  0  0
    0.8638   -2.8122    0.0670 C   0  0  0  0  0  0  0  0  0  0  0  0
    1.2847   -3.5207    1.1340 C   0  0  0  0  0  0  0  0  0  0  0  0
    2.1532   -4.7333    0.9436 C   0  0  0  0  0  0  0  0  0  0  0  0
    2.2229   -5.2005   -0.4874 C   0  0  0  0  0  0  0  0  0  0  0  0
    1.7388   -4.4566   -1.5010 C   0  0  0  0  0  0  0  0  0  0  0  0
    1.1975   -3.1932   -1.2477 N   0  0  0  0  0  0  0  0  0  0  0  0
    1.3766   -2.0544   -2.1878 C   0  0  0  0  0  0  0  0  0  0  0  0
    2.0233   -0.8726   -1.4031 C   0  0  0  0  0  0  0  0  0  0  0  0
    1.7073   -4.9962   -2.9057 C   0  0  0  0  0  0  0  0  0  0  0  0
    1.7477    1.9766   -0.3555 C   0  0  0  0  0  0  0  0  0  0  0  0
   -0.8661    2.2507    0.2911 H   0  0  0  0  0  0  0  0  0  0  0  0
   -1.6340   -2.0427    0.9007 H   0  0  0  0  0  0  0  0  0  0  0  0
   -2.0961    0.4003    1.4041 H   0  0  0  0  0  0  0  0  0  0  0  0
   -2.3292    0.1496   -0.3304 H   0  0  0  0  0  0  0  0  0  0  0  0
    1.1376   -3.1492    2.1413 H   0  0  0  0  0  0  0  0  0  0  0  0
    1.7697   -5.5468    1.5667 H   0  0  0  0  0  0  0  0  0  0  0  0
    3.1701   -4.5025    1.2878 H   0  0  0  0  0  0  0  0  0  0  0  0
    2.6653   -6.1733   -0.6709 H   0  0  0  0  0  0  0  0  0  0  0  0
    0.3971   -1.7574   -2.5894 H   0  0  0  0  0  0  0  0  0  0  0  0
    2.0249   -2.3077   -3.0296 H   0  0  0  0  0  0  0  0  0  0  0  0
    2.2547   -0.0727   -2.1089 H   0  0  0  0  0  0  0  0  0  0  0  0
    2.9607   -1.1966   -0.9302 H   0  0  0  0  0  0  0  0  0  0  0  0
    2.2384   -5.9494   -2.9871 H   0  0  0  0  0  0  0  0  0  0  0  0
    2.1637   -4.3140   -3.6263 H   0  0  0  0  0  0  0  0  0  0  0  0
    0.6687   -5.1703   -3.2096 H   0  0  0  0  0  0  0  0  0  0  0  0
    1.3172    2.9815   -0.3046 H   0  0  0  0  0  0  0  0  0  0  0  0
    2.2737    1.8989   -1.3097 H   0  0  0  0  0  0  0  0  0  0  0  0
    2.4879    1.8927    0.4494 H   0  0  0  0  0  0  0  0  0  0  0  0
  1  2  2  0  0  0  0
  1  6  1  0  0  0  0
  1 17  1  0  0  0  0
  2  3  1  0  0  0  0
  2 16  1  0  0  0  0
  3  4  1  0  0  0  0
  3 14  1  0  0  0  0
  4  5  2  0  0  0  0
  4  7  1  0  0  0  0
  5  6  1  0  0  0  0
  5 18  1  0  0  0  0
  6 19  1  0  0  0  0
  6 20  1  0  0  0  0
  7  8  2  0  0  0  0
  7 12  1  0  0  0  0
  8  9  1  0  0  0  0
  8 21  1  0  0  0  0
  9 10  1  0  0  0  0
  9 22  1  0  0  0  0
  9 23  1  0  0  0  0
 10 11  2  0  0  0  0
 10 24  1  0  0  0  0
 11 12  1  0  0  0  0
 11 15  1  0  0  0  0
 12 13  1  0  0  0  0
 13 14  1  0  0  0  0
 13 25  1  0  0  0  0
 13 26  1  0  0  0  0
 14 27  1  0  0  0  0
 14 28  1  0  0  0  0
 15 29  1  0  0  0  0
 15 30  1  0  0  0  0
 15 31  1  0  0  0  0
 16 32  1  0  0  0  0
 16 33  1  0  0  0  0
 16 34  1  0  0  0  0
M  END
$$$$
