
 OpenBabel03142217213D

 34 37  0  0  0  0  0  0  0  0999 V2000
   -4.3566   -0.0961   -0.0420 C   0  0  0  0  0  0  0  0  0  0  0  0
   -4.7378   -1.4586   -0.3396 C   0  0  0  0  0  0  0  0  0  0  0  0
   -3.8204   -2.4587   -0.3955 C   0  0  0  0  0  0  0  0  0  0  0  0
   -2.3611   -2.1491   -0.1391 C   0  0  0  0  0  0  0  0  0  0  0  0
   -2.1044   -0.8030    0.3425 N   0  0  0  0  0  0  0  0  0  0  0  0
   -3.0920    0.1681    0.3160 C   0  0  0  0  0  0  0  0  0  0  0  0
   -0.8214   -0.5905    1.0187 C   0  0  0  0  0  0  0  0  0  0  0  0
    0.5338    0.0238    0.6974 C   0  0  0  0  0  0  0  0  0  0  0  0
    1.5123   -1.1749    0.3409 C   0  0  0  0  0  0  0  0  0  0  0  0
    0.9158   -2.1574   -0.7257 C   0  0  0  0  0  0  0  0  0  0  0  0
   -0.0021   -3.1682   -0.0866 N   0  0  0  0  0  0  0  0  0  0  0  0
   -1.4447   -3.1871   -0.3005 C   0  0  0  0  0  0  0  0  0  0  0  0
   -1.9807   -4.5403   -0.7112 C   0  0  0  0  0  0  0  0  0  0  0  0
   -3.4022   -4.8065   -0.8408 C   0  0  0  0  0  0  0  0  0  0  0  0
   -4.2824   -3.8206   -0.6264 C   0  0  0  0  0  0  0  0  0  0  0  0
   -1.1388   -5.5859   -0.8542 C   0  0  0  0  0  0  0  0  0  0  0  0
    0.1304   -5.5577   -0.1642 C   0  0  0  0  0  0  0  0  0  0  0  0
    0.6113   -4.3777    0.2295 C   0  0  0  0  0  0  0  0  0  0  0  0
   -5.1071    0.6790   -0.0839 H   0  0  0  0  0  0  0  0  0  0  0  0
   -5.7940   -1.6483   -0.4868 H   0  0  0  0  0  0  0  0  0  0  0  0
   -2.7645    1.1647    0.5836 H   0  0  0  0  0  0  0  0  0  0  0  0
   -0.5490   -1.0872    0.1397 H   0  0  0  0  0  0  0  0  0  0  0  0
   -0.7334   -1.2775    1.8680 H   0  0  0  0  0  0  0  0  0  0  0  0
    0.9298    0.5449    1.5759 H   0  0  0  0  0  0  0  0  0  0  0  0
    0.4977    0.7398   -0.1314 H   0  0  0  0  0  0  0  0  0  0  0  0
    2.4671   -0.7746   -0.0126 H   0  0  0  0  0  0  0  0  0  0  0  0
    1.7163   -1.7393    1.2609 H   0  0  0  0  0  0  0  0  0  0  0  0
    0.4016   -1.6138   -1.5332 H   0  0  0  0  0  0  0  0  0  0  0  0
    1.7366   -2.6881   -1.2237 H   0  0  0  0  0  0  0  0  0  0  0  0
   -3.7398   -5.8307   -0.9384 H   0  0  0  0  0  0  0  0  0  0  0  0
   -5.3360   -4.0452   -0.5550 H   0  0  0  0  0  0  0  0  0  0  0  0
   -1.4512   -6.5357   -1.2683 H   0  0  0  0  0  0  0  0  0  0  0  0
    0.5953   -6.4924    0.1125 H   0  0  0  0  0  0  0  0  0  0  0  0
    1.5104   -4.2840    0.8272 H   0  0  0  0  0  0  0  0  0  0  0  0
  1  2  1  0  0  0  0
  1  6  2  0  0  0  0
  1 19  1  0  0  0  0
  2  3  2  0  0  0  0
  2 20  1  0  0  0  0
  3  4  1  0  0  0  0
  3 15  1  0  0  0  0
  4  5  1  0  0  0  0
  4 12  2  0  0  0  0
  5  6  1  0  0  0  0
  5  7  1  0  0  0  0
  6 21  1  0  0  0  0
  7  8  1  0  0  0  0
  7 22  1  0  0  0  0
  7 23  1  0  0  0  0
  8  9  1  0  0  0  0
  8 24  1  0  0  0  0
  8 25  1  0  0  0  0
  9 10  1  0  0  0  0
  9 26  1  0  0  0  0
  9 27  1  0  0  0  0
 10 11  1  0  0  0  0
 10 28  1  0  0  0  0
 10 29  1  0  0  0  0
 11 12  1  0  0  0  0
 11 18  1  0  0  0  0
 12 13  1  0  0  0  0
 13 14  1  0  0  0  0
 13 16  2  0  0  0  0
 14 15  2  0  0  0  0
 14 30  1  0  0  0  0
 15 31  1  0  0  0  0
 16 17  1  0  0  0  0
 16 32  1  0  0  0  0
 17 18  2  0  0  0  0
 17 33  1  0  0  0  0
 18 34  1  0  0  0  0
M  END
$$$$
