
 OpenBabel03142217213D

 34 36  0  0  0  0  0  0  0  0999 V2000
   -3.5411   -1.3919   -0.3990 C   0  0  0  0  0  0  0  0  0  0  0  0
   -3.6054   -0.0647   -0.8059 C   0  0  0  0  0  0  0  0  0  0  0  0
   -2.5050    0.7577   -0.6117 C   0  0  0  0  0  0  0  0  0  0  0  0
   -1.3486    0.2300   -0.0178 C   0  0  0  0  0  0  0  0  0  0  0  0
   -1.2238   -1.1094    0.3646 C   0  0  0  0  0  0  0  0  0  0  0  0
   -2.3674   -1.9048    0.1742 C   0  0  0  0  0  0  0  0  0  0  0  0
    0.0130   -1.6786    0.8656 N   0  0  0  0  0  0  0  0  0  0  0  0
    1.2475   -1.1156    0.3556 C   0  0  0  0  0  0  0  0  0  0  0  0
    1.3811    0.2304   -0.0015 C   0  0  0  0  0  0  0  0  0  0  0  0
    0.0139    1.2834    0.2546 S   0  0  0  0  0  0  0  0  0  0  0  0
    0.0206    2.2716   -0.8018 O   0  0  0  0  0  0  0  0  0  0  0  0
    0.0080    1.6686    1.6574 O   0  0  0  0  0  0  0  0  0  0  0  0
    2.5413    0.7625   -0.5827 C   0  0  0  0  0  0  0  0  0  0  0  0
    3.6341   -0.0637   -0.8000 C   0  0  0  0  0  0  0  0  0  0  0  0
    3.5517   -1.4052   -0.4458 C   0  0  0  0  0  0  0  0  0  0  0  0
    2.3724   -1.9232    0.1112 C   0  0  0  0  0  0  0  0  0  0  0  0
   -0.0239   -2.7777    1.7641 C   0  0  0  0  0  0  0  0  0  0  0  0
   -1.0475   -3.3044    2.1925 O   0  0  0  0  0  0  0  0  0  0  0  0
    1.2054   -3.1311    2.2544 O   0  0  0  0  0  0  0  0  0  0  0  0
    1.1999   -3.6490    3.5926 C   0  0  0  0  0  0  0  0  0  0  0  0
    1.1905   -2.4689    4.5456 C   0  0  0  0  0  0  0  0  0  0  0  0
   -4.4003   -2.0447   -0.5388 H   0  0  0  0  0  0  0  0  0  0  0  0
   -4.5086    0.3253   -1.2685 H   0  0  0  0  0  0  0  0  0  0  0  0
   -2.5464    1.8005   -0.9195 H   0  0  0  0  0  0  0  0  0  0  0  0
   -2.3735   -2.9643    0.4190 H   0  0  0  0  0  0  0  0  0  0  0  0
    2.5897    1.8120   -0.8680 H   0  0  0  0  0  0  0  0  0  0  0  0
    4.5409    0.3321   -1.2507 H   0  0  0  0  0  0  0  0  0  0  0  0
    4.4003   -2.0635   -0.6189 H   0  0  0  0  0  0  0  0  0  0  0  0
    2.3542   -2.9947    0.2962 H   0  0  0  0  0  0  0  0  0  0  0  0
    2.1024   -4.2458    3.7551 H   0  0  0  0  0  0  0  0  0  0  0  0
    0.3260   -4.2886    3.7652 H   0  0  0  0  0  0  0  0  0  0  0  0
    2.0778   -1.8441    4.3935 H   0  0  0  0  0  0  0  0  0  0  0  0
    1.1687   -2.8069    5.5844 H   0  0  0  0  0  0  0  0  0  0  0  0
    0.3194   -1.8330    4.3611 H   0  0  0  0  0  0  0  0  0  0  0  0
  1  2  1  0  0  0  0
  1  6  2  0  0  0  0
  1 22  1  0  0  0  0
  2  3  2  0  0  0  0
  2 23  1  0  0  0  0
  3  4  1  0  0  0  0
  3 24  1  0  0  0  0
  4  5  2  0  0  0  0
  4 10  1  0  0  0  0
  5  6  1  0  0  0  0
  5  7  1  0  0  0  0
  6 25  1  0  0  0  0
  7  8  1  0  0  0  0
  7 17  1  0  0  0  0
  8  9  1  0  0  0  0
  8 16  2  0  0  0  0
  9 10  1  0  0  0  0
  9 13  2  0  0  0  0
 10 11  2  0  0  0  0
 10 12  2  0  0  0  0
 13 14  1  0  0  0  0
 13 26  1  0  0  0  0
 14 15  2  0  0  0  0
 14 27  1  0  0  0  0
 15 16  1  0  0  0  0
 15 28  1  0  0  0  0
 16 29  1  0  0  0  0
 17 18  2  0  0  0  0
 17 19  1  0  0  0  0
 19 20  1  0  0  0  0
 20 21  1  0  0  0  0
 20 30  1  0  0  0  0
 20 31  1  0  0  0  0
 21 32  1  0  0  0  0
 21 33  1  0  0  0  0
 21 34  1  0  0  0  0
M  END
$$$$
