
 OpenBabel03142217213D

 34 37  0  0  0  0  0  0  0  0999 V2000
    1.5497   -2.6314   11.9952 C   0  0  0  0  0  0  0  0  0  0  0  0
    2.8985   -2.1782   11.6881 C   0  0  0  0  0  0  0  0  0  0  0  0
    3.0293   -1.3231   10.6491 C   0  0  0  0  0  0  0  0  0  0  0  0
    2.1455   -1.5312    9.4709 C   0  0  0  0  0  0  0  0  0  0  0  0
    0.9468   -2.2516    9.6908 N   0  0  0  0  0  0  0  0  0  0  0  0
    0.6540   -2.6852   11.0018 C   0  0  0  0  0  0  0  0  0  0  0  0
    0.1915   -2.6318    8.5756 C   0  0  0  0  0  0  0  0  0  0  0  0
    0.5818   -2.3448    7.3151 C   0  0  0  0  0  0  0  0  0  0  0  0
    1.7590   -1.5826    7.0719 N   0  0  0  0  0  0  0  0  0  0  0  0
    2.5159   -1.1539    8.2148 C   0  0  0  0  0  0  0  0  0  0  0  0
    3.7300   -0.3714    7.9472 C   0  0  0  0  0  0  0  0  0  0  0  0
    4.2969   -0.4052    6.7302 C   0  0  0  0  0  0  0  0  0  0  0  0
    3.7105   -1.2274    5.7013 C   0  0  0  0  0  0  0  0  0  0  0  0
    2.4361   -1.6132    5.8429 C   0  0  0  0  0  0  0  0  0  0  0  0
   -0.1392   -2.9311    6.1602 C   0  0  0  0  0  0  0  0  0  0  0  0
   -1.1667   -2.2278    5.5324 C   0  0  0  0  0  0  0  0  0  0  0  0
   -1.6797   -2.6801    4.3164 C   0  0  0  0  0  0  0  0  0  0  0  0
   -1.1558   -3.8290    3.7170 C   0  0  0  0  0  0  0  0  0  0  0  0
   -0.1584   -4.5604    4.3536 C   0  0  0  0  0  0  0  0  0  0  0  0
    0.3359   -4.1241    5.5844 C   0  0  0  0  0  0  0  0  0  0  0  0
    1.3011   -2.9307   13.0147 H   0  0  0  0  0  0  0  0  0  0  0  0
    3.5002   -3.0955   11.6079 H   0  0  0  0  0  0  0  0  0  0  0  0
    2.9571   -0.2621   10.9195 H   0  0  0  0  0  0  0  0  0  0  0  0
   -0.3649   -3.0236   11.1395 H   0  0  0  0  0  0  0  0  0  0  0  0
   -0.6754   -3.2432    8.7919 H   0  0  0  0  0  0  0  0  0  0  0  0
    4.1361    0.2702    8.7223 H   0  0  0  0  0  0  0  0  0  0  0  0
    5.1439    0.2194    6.4725 H   0  0  0  0  0  0  0  0  0  0  0  0
    4.3015   -1.5547    4.8534 H   0  0  0  0  0  0  0  0  0  0  0  0
    1.9307   -2.1142    5.0272 H   0  0  0  0  0  0  0  0  0  0  0  0
   -1.5362   -1.2927    5.9599 H   0  0  0  0  0  0  0  0  0  0  0  0
   -2.4548   -2.1135    3.8097 H   0  0  0  0  0  0  0  0  0  0  0  0
   -1.5139   -4.1423    2.7368 H   0  0  0  0  0  0  0  0  0  0  0  0
    0.2664   -5.4418    3.8772 H   0  0  0  0  0  0  0  0  0  0  0  0
    1.1598   -4.6656    6.0490 H   0  0  0  0  0  0  0  0  0  0  0  0
  1  2  1  0  0  0  0
  1  6  2  0  0  0  0
  1 21  1  0  0  0  0
  2  3  2  0  0  0  0
  2 22  1  0  0  0  0
  3  4  1  0  0  0  0
  3 23  1  0  0  0  0
  4  5  1  0  0  0  0
  4 10  2  0  0  0  0
  5  6  1  0  0  0  0
  5  7  1  0  0  0  0
  6 24  1  0  0  0  0
  7  8  2  0  0  0  0
  7 25  1  0  0  0  0
  8  9  1  0  0  0  0
  8 15  1  0  0  0  0
  9 10  1  0  0  0  0
  9 14  1  0  0  0  0
 10 11  1  0  0  0  0
 11 12  2  0  0  0  0
 11 26  1  0  0  0  0
 12 13  1  0  0  0  0
 12 27  1  0  0  0  0
 13 14  2  0  0  0  0
 13 28  1  0  0  0  0
 14 29  1  0  0  0  0
 15 16  1  0  0  0  0
 15 20  2  0  0  0  0
 16 17  2  0  0  0  0
 16 30  1  0  0  0  0
 17 18  1  0  0  0  0
 17 31  1  0  0  0  0
 18 19  2  0  0  0  0
 18 32  1  0  0  0  0
 19 20  1  0  0  0  0
 19 33  1  0  0  0  0
 20 34  1  0  0  0  0
M  END
$$$$
