
 OpenBabel03142217213D

 42 43  0  0  1  0  0  0  0  0999 V2000
    1.4489   -0.3224    0.1724 N   0  0  0  0  0  0  0  0  0  0  0  0
    0.5381   -1.3980    0.0476 C   0  0  0  0  0  0  0  0  0  0  0  0
   -0.7941   -1.1966    0.0965 C   0  0  0  0  0  0  0  0  0  0  0  0
   -1.4147    0.1806    0.2306 C   0  0  1  0  0  0  0  0  0  0  0  0
   -0.3552    1.2647    0.1839 C   0  0  0  0  0  0  0  0  0  0  0  0
    0.9594    1.0017    0.1167 C   0  0  0  0  0  0  0  0  0  0  0  0
    1.9245    2.1442   -0.0897 C   0  0  0  0  0  0  0  0  0  0  0  0
   -2.5411    0.4064   -0.8414 C   0  0  2  0  0  0  0  0  0  0  0  0
   -2.0055    0.2952   -2.2498 C   0  0  0  0  0  0  0  0  0  0  0  0
   -1.8135    1.3795   -3.0247 C   0  0  0  0  0  0  0  0  0  0  0  0
   -2.1908    2.6696   -2.5809 N   0  0  0  0  0  0  0  0  0  0  0  0
   -3.0139    2.7903   -1.4355 C   0  0  0  0  0  0  0  0  0  0  0  0
   -3.2311    1.7374   -0.6213 C   0  0  0  0  0  0  0  0  0  0  0  0
   -3.6399    4.1092   -1.0559 C   0  0  0  0  0  0  0  0  0  0  0  0
   -1.6228    3.8720   -3.2068 C   0  0  0  0  0  0  0  0  0  0  0  0
   -1.1834    1.1891   -4.3782 C   0  0  0  0  0  0  0  0  0  0  0  0
    1.0270   -2.7982   -0.2209 C   0  0  0  0  0  0  0  0  0  0  0  0
    2.8676   -0.5370    0.4929 C   0  0  0  0  0  0  0  0  0  0  0  0
   -1.4756   -2.0371    0.0114 H   0  0  0  0  0  0  0  0  0  0  0  0
   -1.8874    0.2265    1.2214 H   0  0  0  0  0  0  0  0  0  0  0  0
   -0.6985    2.2941    0.1547 H   0  0  0  0  0  0  0  0  0  0  0  0
    1.4054    3.0951   -0.2576 H   0  0  0  0  0  0  0  0  0  0  0  0
    2.5415    1.9634   -0.9775 H   0  0  0  0  0  0  0  0  0  0  0  0
    2.5768    2.2734    0.7784 H   0  0  0  0  0  0  0  0  0  0  0  0
   -3.3078   -0.3728   -0.7241 H   0  0  0  0  0  0  0  0  0  0  0  0
   -1.7097   -0.6925   -2.5885 H   0  0  0  0  0  0  0  0  0  0  0  0
   -3.8473    1.8360    0.2651 H   0  0  0  0  0  0  0  0  0  0  0  0
   -3.3778    4.9307   -1.7251 H   0  0  0  0  0  0  0  0  0  0  0  0
   -3.3188    4.4026   -0.0498 H   0  0  0  0  0  0  0  0  0  0  0  0
   -4.7321    4.0264   -1.0615 H   0  0  0  0  0  0  0  0  0  0  0  0
   -0.8805    3.6531   -3.9790 H   0  0  0  0  0  0  0  0  0  0  0  0
   -1.1049    4.4749   -2.4510 H   0  0  0  0  0  0  0  0  0  0  0  0
   -2.4082    4.4736   -3.6738 H   0  0  0  0  0  0  0  0  0  0  0  0
   -1.0971    0.1295   -4.6456 H   0  0  0  0  0  0  0  0  0  0  0  0
   -0.1711    1.6053   -4.3952 H   0  0  0  0  0  0  0  0  0  0  0  0
   -1.7860    1.6686   -5.1558 H   0  0  0  0  0  0  0  0  0  0  0  0
    2.0808   -2.8437   -0.5049 H   0  0  0  0  0  0  0  0  0  0  0  0
    0.4772   -3.2305   -1.0659 H   0  0  0  0  0  0  0  0  0  0  0  0
    0.8729   -3.4334    0.6562 H   0  0  0  0  0  0  0  0  0  0  0  0
    3.0882   -1.5628    0.7973 H   0  0  0  0  0  0  0  0  0  0  0  0
    3.1545    0.0844    1.3511 H   0  0  0  0  0  0  0  0  0  0  0  0
    3.5023   -0.2785   -0.3590 H   0  0  0  0  0  0  0  0  0  0  0  0
  1  2  1  0  0  0  0
  1  6  1  0  0  0  0
  1 18  1  0  0  0  0
  2  3  2  0  0  0  0
  2 17  1  0  0  0  0
  3  4  1  0  0  0  0
  3 19  1  0  0  0  0
  4  5  1  0  0  0  0
  4  8  1  0  0  0  0
  4 20  1  1  0  0  0
  5  6  2  0  0  0  0
  5 21  1  0  0  0  0
  6  7  1  0  0  0  0
  7 22  1  0  0  0  0
  7 23  1  0  0  0  0
  7 24  1  0  0  0  0
  8  9  1  0  0  0  0
  8 13  1  0  0  0  0
  8 25  1  1  0  0  0
  9 10  2  0  0  0  0
  9 26  1  0  0  0  0
 10 11  1  0  0  0  0
 10 16  1  0  0  0  0
 11 12  1  0  0  0  0
 11 15  1  0  0  0  0
 12 13  2  0  0  0  0
 12 14  1  0  0  0  0
 13 27  1  0  0  0  0
 14 28  1  0  0  0  0
 14 29  1  0  0  0  0
 14 30  1  0  0  0  0
 15 31  1  0  0  0  0
 15 32  1  0  0  0  0
 15 33  1  0  0  0  0
 16 34  1  0  0  0  0
 16 35  1  0  0  0  0
 16 36  1  0  0  0  0
 17 37  1  0  0  0  0
 17 38  1  0  0  0  0
 17 39  1  0  0  0  0
 18 40  1  0  0  0  0
 18 41  1  0  0  0  0
 18 42  1  0  0  0  0
M  END
$$$$
