
 OpenBabel03142217213D

 26 28  0  0  0  0  0  0  0  0999 V2000
   -3.1393    0.2287    0.0598 C   0  0  0  0  0  0  0  0  0  0  0  0
   -2.7921   -1.0688    0.0100 C   0  0  0  0  0  0  0  0  0  0  0  0
   -1.3849   -1.5499   -0.0457 C   0  0  0  0  0  0  0  0  0  0  0  0
   -1.1090   -2.7407   -0.0920 O   0  0  0  0  0  0  0  0  0  0  0  0
   -0.4319   -0.4655   -0.0377 C   0  0  0  0  0  0  0  0  0  0  0  0
   -0.7868    0.9229    0.0153 C   0  0  0  0  0  0  0  0  0  0  0  0
   -2.1690    1.3635    0.0663 C   0  0  0  0  0  0  0  0  0  0  0  0
   -2.5535    2.5247    0.1109 O   0  0  0  0  0  0  0  0  0  0  0  0
    0.3888    1.6769    0.0044 C   0  0  0  0  0  0  0  0  0  0  0  0
    1.4011    0.7711   -0.0475 N   0  0  0  0  0  0  0  0  0  0  0  0
    0.9337   -0.5095   -0.0779 C   0  0  0  0  0  0  0  0  0  0  0  0
    2.0353   -1.4881   -0.1426 C   0  0  0  0  0  0  0  0  0  0  0  0
    3.2506   -0.6156    0.2472 C   0  0  0  0  0  0  0  0  0  0  0  0
    2.8529    0.8366   -0.0812 C   0  0  0  0  0  0  0  0  0  0  0  0
    0.6202    3.1437    0.0341 C   0  0  0  0  0  0  0  0  0  0  0  0
   -4.1815    0.5262    0.0990 H   0  0  0  0  0  0  0  0  0  0  0  0
   -3.5402   -1.8533    0.0076 H   0  0  0  0  0  0  0  0  0  0  0  0
    2.1435   -1.8752   -1.1610 H   0  0  0  0  0  0  0  0  0  0  0  0
    1.9019   -2.3237    0.5499 H   0  0  0  0  0  0  0  0  0  0  0  0
    4.1688   -0.9287   -0.2592 H   0  0  0  0  0  0  0  0  0  0  0  0
    3.4246   -0.7074    1.3276 H   0  0  0  0  0  0  0  0  0  0  0  0
    3.1488    1.1272   -1.0935 H   0  0  0  0  0  0  0  0  0  0  0  0
    3.2094    1.5522    0.6626 H   0  0  0  0  0  0  0  0  0  0  0  0
   -0.3183    3.7035    0.0677 H   0  0  0  0  0  0  0  0  0  0  0  0
    1.1642    3.4654   -0.8600 H   0  0  0  0  0  0  0  0  0  0  0  0
    1.2046    3.4249    0.9161 H   0  0  0  0  0  0  0  0  0  0  0  0
  1  2  2  0  0  0  0
  1  7  1  0  0  0  0
  1 16  1  0  0  0  0
  2  3  1  0  0  0  0
  2 17  1  0  0  0  0
  3  4  2  0  0  0  0
  3  5  1  0  0  0  0
  5  6  1  0  0  0  0
  5 11  2  0  0  0  0
  6  7  1  0  0  0  0
  6  9  2  0  0  0  0
  7  8  2  0  0  0  0
  9 10  1  0  0  0  0
  9 15  1  0  0  0  0
 10 11  1  0  0  0  0
 10 14  1  0  0  0  0
 11 12  1  0  0  0  0
 12 13  1  0  0  0  0
 12 18  1  0  0  0  0
 12 19  1  0  0  0  0
 13 14  1  0  0  0  0
 13 20  1  0  0  0  0
 13 21  1  0  0  0  0
 14 22  1  0  0  0  0
 14 23  1  0  0  0  0
 15 24  1  0  0  0  0
 15 25  1  0  0  0  0
 15 26  1  0  0  0  0
M  END
$$$$
