
 OpenBabel03142217213D

 33 36  0  0  0  0  0  0  0  0999 V2000
   -3.1530    0.2180    0.0186 C   0  0  0  0  0  0  0  0  0  0  0  0
   -2.7858   -1.0723   -0.0052 C   0  0  0  0  0  0  0  0  0  0  0  0
   -1.3729   -1.5198   -0.0698 C   0  0  0  0  0  0  0  0  0  0  0  0
   -1.0721   -2.7040   -0.1153 O   0  0  0  0  0  0  0  0  0  0  0  0
   -0.4394   -0.4144   -0.0582 C   0  0  0  0  0  0  0  0  0  0  0  0
   -0.8064    0.9778   -0.0181 C   0  0  0  0  0  0  0  0  0  0  0  0
   -2.2106    1.3714   -0.0195 C   0  0  0  0  0  0  0  0  0  0  0  0
   -2.6492    2.5147   -0.0629 O   0  0  0  0  0  0  0  0  0  0  0  0
    0.3726    1.7542    0.0093 C   0  0  0  0  0  0  0  0  0  0  0  0
    1.3846    0.8315   -0.0527 N   0  0  0  0  0  0  0  0  0  0  0  0
    0.9249   -0.4504   -0.0868 C   0  0  0  0  0  0  0  0  0  0  0  0
    2.0214   -1.4361   -0.1427 C   0  0  0  0  0  0  0  0  0  0  0  0
    3.2317   -0.5754    0.2711 C   0  0  0  0  0  0  0  0  0  0  0  0
    2.8391    0.8769   -0.0568 C   0  0  0  0  0  0  0  0  0  0  0  0
    0.5931    3.2153    0.0964 C   0  0  0  0  0  0  0  0  0  0  0  0
   -0.2705    4.0363    0.8351 C   0  0  0  0  0  0  0  0  0  0  0  0
   -0.0890    5.4236    0.8990 C   0  0  0  0  0  0  0  0  0  0  0  0
    0.9958    6.0164    0.2632 C   0  0  0  0  0  0  0  0  0  0  0  0
    1.8849    5.2222   -0.4512 C   0  0  0  0  0  0  0  0  0  0  0  0
    1.6722    3.8404   -0.5489 C   0  0  0  0  0  0  0  0  0  0  0  0
   -4.2010    0.4960    0.0603 H   0  0  0  0  0  0  0  0  0  0  0  0
   -3.5195   -1.8702    0.0172 H   0  0  0  0  0  0  0  0  0  0  0  0
    2.1441   -1.8182   -1.1612 H   0  0  0  0  0  0  0  0  0  0  0  0
    1.8770   -2.2762    0.5427 H   0  0  0  0  0  0  0  0  0  0  0  0
    4.1548   -0.8840   -0.2288 H   0  0  0  0  0  0  0  0  0  0  0  0
    3.3949   -0.6712    1.3523 H   0  0  0  0  0  0  0  0  0  0  0  0
    3.1587    1.1524   -1.0657 H   0  0  0  0  0  0  0  0  0  0  0  0
    3.1957    1.5867    0.6922 H   0  0  0  0  0  0  0  0  0  0  0  0
   -1.1152    3.6150    1.3728 H   0  0  0  0  0  0  0  0  0  0  0  0
   -0.8022    6.0352    1.4464 H   0  0  0  0  0  0  0  0  0  0  0  0
    1.1417    7.0916    0.3197 H   0  0  0  0  0  0  0  0  0  0  0  0
    2.7389    5.6768   -0.9467 H   0  0  0  0  0  0  0  0  0  0  0  0
    2.3670    3.2722   -1.1571 H   0  0  0  0  0  0  0  0  0  0  0  0
  1  2  2  0  0  0  0
  1  7  1  0  0  0  0
  1 21  1  0  0  0  0
  2  3  1  0  0  0  0
  2 22  1  0  0  0  0
  3  4  2  0  0  0  0
  3  5  1  0  0  0  0
  5  6  1  0  0  0  0
  5 11  2  0  0  0  0
  6  7  1  0  0  0  0
  6  9  2  0  0  0  0
  7  8  2  0  0  0  0
  9 10  1  0  0  0  0
  9 15  1  0  0  0  0
 10 11  1  0  0  0  0
 10 14  1  0  0  0  0
 11 12  1  0  0  0  0
 12 13  1  0  0  0  0
 12 23  1  0  0  0  0
 12 24  1  0  0  0  0
 13 14  1  0  0  0  0
 13 25  1  0  0  0  0
 13 26  1  0  0  0  0
 14 27  1  0  0  0  0
 14 28  1  0  0  0  0
 15 16  1  0  0  0  0
 15 20  2  0  0  0  0
 16 17  2  0  0  0  0
 16 29  1  0  0  0  0
 17 18  1  0  0  0  0
 17 30  1  0  0  0  0
 18 19  2  0  0  0  0
 18 31  1  0  0  0  0
 19 20  1  0  0  0  0
 19 32  1  0  0  0  0
 20 33  1  0  0  0  0
M  END
$$$$
