
 OpenBabel03142217213D

 34 36  0  0  0  0  0  0  0  0999 V2000
   -0.5915    1.2050    0.1831 C   0  0  0  0  0  0  0  0  0  0  0  0
    0.6323    0.8542   -0.2218 C   0  0  0  0  0  0  0  0  0  0  0  0
    1.0248   -0.4679   -0.3300 N   0  0  0  0  0  0  0  0  0  0  0  0
    0.2155   -1.4932    0.1926 C   0  0  0  0  0  0  0  0  0  0  0  0
   -1.0413   -1.2475    0.6112 C   0  0  0  0  0  0  0  0  0  0  0  0
   -1.6179    0.1540    0.5214 C   0  0  0  0  0  0  0  0  0  0  0  0
    0.7886   -2.8433    0.0433 C   0  0  0  0  0  0  0  0  0  0  0  0
    1.2126   -3.5595    1.1063 C   0  0  0  0  0  0  0  0  0  0  0  0
    2.0951   -4.7609    0.9120 C   0  0  0  0  0  0  0  0  0  0  0  0
    2.1838   -5.2148   -0.5199 C   0  0  0  0  0  0  0  0  0  0  0  0
    1.7192   -4.4606   -1.5397 C   0  0  0  0  0  0  0  0  0  0  0  0
    1.1553   -3.2036   -1.2768 N   0  0  0  0  0  0  0  0  0  0  0  0
    1.3881   -2.0391   -2.1801 C   0  0  0  0  0  0  0  0  0  0  0  0
    2.0253   -0.8954   -1.3347 C   0  0  0  0  0  0  0  0  0  0  0  0
    1.8067   -4.9800   -2.9628 C   0  0  0  0  0  0  0  0  0  0  0  0
    0.4435   -5.2887   -3.5749 C   0  0  0  0  0  0  0  0  0  0  0  0
   -0.8774    2.2527    0.2323 H   0  0  0  0  0  0  0  0  0  0  0  0
    1.3861    1.5820   -0.5042 H   0  0  0  0  0  0  0  0  0  0  0  0
   -1.7076   -2.0502    0.8960 H   0  0  0  0  0  0  0  0  0  0  0  0
   -2.0954    0.4077    1.4717 H   0  0  0  0  0  0  0  0  0  0  0  0
   -2.3934    0.1712   -0.2546 H   0  0  0  0  0  0  0  0  0  0  0  0
    1.0533   -3.2026    2.1167 H   0  0  0  0  0  0  0  0  0  0  0  0
    1.7305   -5.5870    1.5270 H   0  0  0  0  0  0  0  0  0  0  0  0
    3.1075   -4.5098    1.2590 H   0  0  0  0  0  0  0  0  0  0  0  0
    2.6649   -6.1665   -0.7071 H   0  0  0  0  0  0  0  0  0  0  0  0
    0.4275   -1.7143   -2.6003 H   0  0  0  0  0  0  0  0  0  0  0  0
    2.0584   -2.2805   -3.0053 H   0  0  0  0  0  0  0  0  0  0  0  0
    2.3153   -0.0625   -1.9909 H   0  0  0  0  0  0  0  0  0  0  0  0
    2.9249   -1.2563   -0.8223 H   0  0  0  0  0  0  0  0  0  0  0  0
    2.3978   -5.9035   -2.9869 H   0  0  0  0  0  0  0  0  0  0  0  0
    2.3466   -4.2768   -3.6044 H   0  0  0  0  0  0  0  0  0  0  0  0
   -0.1436   -5.9510   -2.9308 H   0  0  0  0  0  0  0  0  0  0  0  0
    0.5749   -5.7924   -4.5403 H   0  0  0  0  0  0  0  0  0  0  0  0
   -0.1350   -4.3786   -3.7550 H   0  0  0  0  0  0  0  0  0  0  0  0
  1  2  2  0  0  0  0
  1  6  1  0  0  0  0
  1 17  1  0  0  0  0
  2  3  1  0  0  0  0
  2 18  1  0  0  0  0
  3  4  1  0  0  0  0
  3 14  1  0  0  0  0
  4  5  2  0  0  0  0
  4  7  1  0  0  0  0
  5  6  1  0  0  0  0
  5 19  1  0  0  0  0
  6 20  1  0  0  0  0
  6 21  1  0  0  0  0
  7  8  2  0  0  0  0
  7 12  1  0  0  0  0
  8  9  1  0  0  0  0
  8 22  1  0  0  0  0
  9 10  1  0  0  0  0
  9 23  1  0  0  0  0
  9 24  1  0  0  0  0
 10 11  2  0  0  0  0
 10 25  1  0  0  0  0
 11 12  1  0  0  0  0
 11 15  1  0  0  0  0
 12 13  1  0  0  0  0
 13 14  1  0  0  0  0
 13 26  1  0  0  0  0
 13 27  1  0  0  0  0
 14 28  1  0  0  0  0
 14 29  1  0  0  0  0
 15 16  1  0  0  0  0
 15 30  1  0  0  0  0
 15 31  1  0  0  0  0
 16 32  1  0  0  0  0
 16 33  1  0  0  0  0
 16 34  1  0  0  0  0
M  END
$$$$
