
 OpenBabel03142217213D

 42 45  0  0  1  0  0  0  0  0999 V2000
    6.0043    1.5493    0.2965 C   0  0  0  0  0  0  0  0  0  0  0  0
    6.6272    0.5874   -0.3921 C   0  0  0  0  0  0  0  0  0  0  0  0
    5.9687   -0.6782   -0.6334 C   0  0  0  0  0  0  0  0  0  0  0  0
    6.5677   -1.6536   -1.3155 C   0  0  0  0  0  0  0  0  0  0  0  0
    6.0337   -2.9932   -1.1583 C   0  0  0  0  0  0  0  0  0  0  0  0
    5.5217   -3.3817    0.0382 C   0  0  0  0  0  0  0  0  0  0  0  0
    4.8693   -2.3225    0.7913 N   0  0  0  0  0  0  0  0  0  0  0  0
    4.6351   -1.0260    0.0251 C   0  0  1  0  0  0  0  0  0  0  0  0
    4.0481    0.1708    0.7221 C   0  0  0  0  0  0  0  0  0  0  0  0
    4.6551    1.3656    0.7781 C   0  0  0  0  0  0  0  0  0  0  0  0
    3.9944   -2.5871    1.9229 C   0  0  0  0  0  0  0  0  0  0  0  0
    5.5221   -4.8638    0.3141 C   0  0  0  0  0  0  0  0  0  0  0  0
    4.6455   -5.6353   -0.3704 C   0  0  0  0  0  0  0  0  0  0  0  0
    4.7114   -7.1017   -0.2828 C   0  0  0  0  0  0  0  0  0  0  0  0
    5.9798   -7.5485   -0.2114 C   0  0  0  0  0  0  0  0  0  0  0  0
    6.8005   -7.0244    0.9601 C   0  0  1  0  0  0  0  0  0  0  0  0
    6.6007   -5.5098    1.0686 N   0  0  0  0  0  0  0  0  0  0  0  0
    6.7922   -5.0274    2.4441 C   0  0  0  0  0  0  0  0  0  0  0  0
    8.2534   -7.5040    0.9127 C   0  0  0  0  0  0  0  0  0  0  0  0
    8.7318   -8.2614   -0.1117 C   0  0  0  0  0  0  0  0  0  0  0  0
    7.9671   -8.4394   -1.3224 C   0  0  0  0  0  0  0  0  0  0  0  0
    6.6745   -8.0885   -1.3730 C   0  0  0  0  0  0  0  0  0  0  0  0
    6.5055    2.4849    0.5251 H   0  0  0  0  0  0  0  0  0  0  0  0
    7.6609    0.7180   -0.7071 H   0  0  0  0  0  0  0  0  0  0  0  0
    7.5624   -1.5816   -1.7817 H   0  0  0  0  0  0  0  0  0  0  0  0
    5.6721   -3.4979   -2.0534 H   0  0  0  0  0  0  0  0  0  0  0  0
    3.9331   -1.2475   -0.7927 H   0  0  0  0  0  0  0  0  0  0  0  0
    3.0011    0.1099    1.0037 H   0  0  0  0  0  0  0  0  0  0  0  0
    4.1355    2.2489    1.1490 H   0  0  0  0  0  0  0  0  0  0  0  0
    3.4174   -1.7123    2.2402 H   0  0  0  0  0  0  0  0  0  0  0  0
    4.5987   -2.8766    2.7861 H   0  0  0  0  0  0  0  0  0  0  0  0
    3.2665   -3.3771    1.7093 H   0  0  0  0  0  0  0  0  0  0  0  0
    3.9158   -5.2187   -1.0513 H   0  0  0  0  0  0  0  0  0  0  0  0
    4.1445   -7.2539    0.6507 H   0  0  0  0  0  0  0  0  0  0  0  0
    6.3858   -7.4830    1.8705 H   0  0  0  0  0  0  0  0  0  0  0  0
    7.5140   -5.6370    3.0004 H   0  0  0  0  0  0  0  0  0  0  0  0
    5.8393   -5.0885    2.9847 H   0  0  0  0  0  0  0  0  0  0  0  0
    7.1432   -3.9926    2.4630 H   0  0  0  0  0  0  0  0  0  0  0  0
    8.8477   -7.4413    1.8021 H   0  0  0  0  0  0  0  0  0  0  0  0
    9.6912   -8.7726   -0.0552 H   0  0  0  0  0  0  0  0  0  0  0  0
    8.4687   -8.8522   -2.1995 H   0  0  0  0  0  0  0  0  0  0  0  0
    6.1130   -8.2048   -2.2937 H   0  0  0  0  0  0  0  0  0  0  0  0
  1  2  2  0  0  0  0
  1 10  1  0  0  0  0
  1 23  1  0  0  0  0
  2  3  1  0  0  0  0
  2 24  1  0  0  0  0
  3  4  2  0  0  0  0
  3  8  1  0  0  0  0
  4  5  1  0  0  0  0
  4 25  1  0  0  0  0
  5  6  2  0  0  0  0
  5 26  1  0  0  0  0
  6  7  1  0  0  0  0
  6 12  1  0  0  0  0
  7  8  1  0  0  0  0
  7 11  1  0  0  0  0
  8  9  1  0  0  0  0
  8 27  1  6  0  0  0
  9 10  2  0  0  0  0
  9 28  1  0  0  0  0
 10 29  1  0  0  0  0
 11 30  1  0  0  0  0
 11 31  1  0  0  0  0
 11 32  1  0  0  0  0
 12 13  2  0  0  0  0
 12 17  1  0  0  0  0
 13 14  1  0  0  0  0
 13 33  1  0  0  0  0
 14 15  2  0  0  0  0
 14 34  1  0  0  0  0
 15 16  1  0  0  0  0
 15 22  1  0  0  0  0
 16 17  1  0  0  0  0
 16 19  1  0  0  0  0
 16 35  1  6  0  0  0
 17 18  1  0  0  0  0
 18 36  1  0  0  0  0
 18 37  1  0  0  0  0
 18 38  1  0  0  0  0
 19 20  2  0  0  0  0
 19 39  1  0  0  0  0
 20 21  1  0  0  0  0
 20 40  1  0  0  0  0
 21 22  2  0  0  0  0
 21 41  1  0  0  0  0
 22 42  1  0  0  0  0
M  END
$$$$
