
 OpenBabel03142217213D

 22 23  0  0  1  0  0  0  0  0999 V2000
   -2.1961    0.7764   -0.0247 C   0  0  0  0  0  0  0  0  0  0  0  0
   -3.2344    1.4214   -0.0436 O   0  0  0  0  0  0  0  0  0  0  0  0
   -2.2050   -0.7572   -0.0291 C   0  0  0  0  0  0  0  0  0  0  0  0
   -3.2487   -1.3925   -0.0296 O   0  0  0  0  0  0  0  0  0  0  0  0
   -0.8989   -1.4479   -0.0287 C   0  0  0  0  0  0  0  0  0  0  0  0
    0.2166   -0.7137   -0.0091 C   0  0  0  0  0  0  0  0  0  0  0  0
    0.2428    0.7366    0.0241 C   0  0  0  0  0  0  0  0  0  0  0  0
   -0.8832    1.4573    0.0079 C   0  0  0  0  0  0  0  0  0  0  0  0
    1.5523    1.1530    0.0838 N   0  0  0  0  0  0  0  0  0  0  0  0
    2.5115    0.0455   -0.0170 C   0  0  0  0  0  0  0  0  0  0  0  0
    1.6335   -1.2286    0.0190 C   0  0  1  0  0  0  0  0  0  0  0  0
    1.8384   -1.9680    1.2200 O   0  0  0  0  0  0  0  0  0  0  0  0
    2.0679    2.5057    0.0113 C   0  0  0  0  0  0  0  0  0  0  0  0
   -0.9023   -2.5299   -0.0282 H   0  0  0  0  0  0  0  0  0  0  0  0
   -0.9045    2.5374    0.0302 H   0  0  0  0  0  0  0  0  0  0  0  0
    3.2258    0.0756    0.8128 H   0  0  0  0  0  0  0  0  0  0  0  0
    3.0566    0.1085   -0.9654 H   0  0  0  0  0  0  0  0  0  0  0  0
    1.8544   -1.8771   -0.8349 H   0  0  0  0  0  0  0  0  0  0  0  0
    1.5938   -1.3806    1.9577 H   0  0  0  0  0  0  0  0  0  0  0  0
    1.2741    3.2583    0.0176 H   0  0  0  0  0  0  0  0  0  0  0  0
    2.6534    2.6446   -0.9039 H   0  0  0  0  0  0  0  0  0  0  0  0
    2.7186    2.7023    0.8694 H   0  0  0  0  0  0  0  0  0  0  0  0
  1  2  2  0  0  0  0
  1  3  1  0  0  0  0
  1  8  1  0  0  0  0
  3  4  2  0  0  0  0
  3  5  1  0  0  0  0
  5  6  2  0  0  0  0
  5 14  1  0  0  0  0
  6  7  1  0  0  0  0
  6 11  1  0  0  0  0
  7  8  2  0  0  0  0
  7  9  1  0  0  0  0
  8 15  1  0  0  0  0
  9 10  1  0  0  0  0
  9 13  1  0  0  0  0
 10 11  1  0  0  0  0
 10 16  1  0  0  0  0
 10 17  1  0  0  0  0
 11 12  1  0  0  0  0
 11 18  1  6  0  0  0
 12 19  1  0  0  0  0
 13 20  1  0  0  0  0
 13 21  1  0  0  0  0
 13 22  1  0  0  0  0
M  END
$$$$
