
 OpenBabel03142217213D

 32 33  0  0  1  0  0  0  0  0999 V2000
    6.2943   -1.4716   -0.7438 N   0  0  0  0  0  0  0  0  0  0  0  0
    6.1282   -1.2891    0.6226 C   0  0  0  0  0  0  0  0  0  0  0  0
    4.9466   -0.9966    1.1833 C   0  0  0  0  0  0  0  0  0  0  0  0
    3.6745   -0.8569    0.3438 C   0  0  2  0  0  0  0  0  0  0  0  0
    4.0013   -0.8564   -1.1446 C   0  0  0  0  0  0  0  0  0  0  0  0
    5.2327   -1.1570   -1.5860 C   0  0  0  0  0  0  0  0  0  0  0  0
    2.7666    0.3540    0.7492 C   0  0  1  0  0  0  0  0  0  0  0  0
    2.3180    0.2127    2.2000 C   0  0  0  0  0  0  0  0  0  0  0  0
    2.8874    0.9664    3.1534 C   0  0  0  0  0  0  0  0  0  0  0  0
    3.8382    1.9423    2.8659 N   0  0  0  0  0  0  0  0  0  0  0  0
    3.9808    2.3601    1.5463 C   0  0  0  0  0  0  0  0  0  0  0  0
    3.4653    1.6810    0.5129 C   0  0  0  0  0  0  0  0  0  0  0  0
    4.7569    2.4355    3.9063 C   0  0  0  0  0  0  0  0  0  0  0  0
    4.2291    3.6042    4.6254 C   0  0  0  0  0  0  0  0  0  0  0  0
    3.8456    4.5252    5.2206 N   0  0  0  0  0  0  0  0  0  0  0  0
    7.5405   -2.0560   -1.2798 C   0  0  0  0  0  0  0  0  0  0  0  0
    8.5534   -1.0442   -1.6025 C   0  0  0  0  0  0  0  0  0  0  0  0
    9.3904   -0.2823   -1.8720 N   0  0  0  0  0  0  0  0  0  0  0  0
    7.0242   -1.4040    1.2275 H   0  0  0  0  0  0  0  0  0  0  0  0
    4.8835   -0.8730    2.2586 H   0  0  0  0  0  0  0  0  0  0  0  0
    3.0885   -1.7686    0.5300 H   0  0  0  0  0  0  0  0  0  0  0  0
    3.2100   -0.6245   -1.8489 H   0  0  0  0  0  0  0  0  0  0  0  0
    5.4620   -1.1723   -2.6479 H   0  0  0  0  0  0  0  0  0  0  0  0
    1.8565    0.3471    0.1333 H   0  0  0  0  0  0  0  0  0  0  0  0
    1.5879   -0.5491    2.4510 H   0  0  0  0  0  0  0  0  0  0  0  0
    2.6476    0.8354    4.2048 H   0  0  0  0  0  0  0  0  0  0  0  0
    4.5531    3.2710    1.3954 H   0  0  0  0  0  0  0  0  0  0  0  0
    3.5956    2.0307   -0.5054 H   0  0  0  0  0  0  0  0  0  0  0  0
    5.7233    2.6886    3.4526 H   0  0  0  0  0  0  0  0  0  0  0  0
    4.9692    1.6290    4.6174 H   0  0  0  0  0  0  0  0  0  0  0  0
    7.3128   -2.6499   -2.1713 H   0  0  0  0  0  0  0  0  0  0  0  0
    7.9523   -2.7672   -0.5502 H   0  0  0  0  0  0  0  0  0  0  0  0
  1  2  1  0  0  0  0
  1  6  1  0  0  0  0
  1 16  1  0  0  0  0
  2  3  2  0  0  0  0
  2 19  1  0  0  0  0
  3  4  1  0  0  0  0
  3 20  1  0  0  0  0
  4  5  1  0  0  0  0
  4 21  1  1  0  0  0
  5  6  2  0  0  0  0
  5 22  1  0  0  0  0
  6 23  1  0  0  0  0
  7  8  1  0  0  0  0
  7 12  1  0  0  0  0
  7  4  1  0  0  0  0
  7 24  1  6  0  0  0
  8  9  2  0  0  0  0
  8 25  1  0  0  0  0
  9 10  1  0  0  0  0
  9 26  1  0  0  0  0
 10 11  1  0  0  0  0
 10 13  1  0  0  0  0
 11 12  2  0  0  0  0
 11 27  1  0  0  0  0
 12 28  1  0  0  0  0
 13 14  1  0  0  0  0
 13 29  1  0  0  0  0
 13 30  1  0  0  0  0
 14 15  3  0  0  0  0
 16 17  1  0  0  0  0
 16 31  1  0  0  0  0
 16 32  1  0  0  0  0
 17 18  3  0  0  0  0
M  END
$$$$
