
 OpenBabel03142217213D

 34 36  0  0  0  0  0  0  0  0999 V2000
   -0.6362    1.2033    0.4820 C   0  0  0  0  0  0  0  0  0  0  0  0
    0.5916    0.9110    0.0356 C   0  0  0  0  0  0  0  0  0  0  0  0
    1.0044   -0.3874   -0.2321 N   0  0  0  0  0  0  0  0  0  0  0  0
    0.2334   -1.4692    0.2472 C   0  0  0  0  0  0  0  0  0  0  0  0
   -1.0255   -1.2725    0.7051 C   0  0  0  0  0  0  0  0  0  0  0  0
   -1.6377    0.1083    0.7140 C   0  0  0  0  0  0  0  0  0  0  0  0
    0.8030   -2.8116    0.0467 C   0  0  0  0  0  0  0  0  0  0  0  0
    1.4047   -3.4187    1.0875 C   0  0  0  0  0  0  0  0  0  0  0  0
    2.2366   -4.6525    0.9157 C   0  0  0  0  0  0  0  0  0  0  0  0
    2.2284   -5.1666   -0.4931 C   0  0  0  0  0  0  0  0  0  0  0  0
    1.5876   -4.5346   -1.4975 C   0  0  0  0  0  0  0  0  0  0  0  0
    0.8953   -3.3226   -1.2747 N   0  0  0  0  0  0  0  0  0  0  0  0
    0.2679   -2.5628   -2.3831 C   0  0  0  0  0  0  0  0  0  0  0  0
    0.7632   -1.1117   -2.5409 C   0  0  0  0  0  0  0  0  0  0  0  0
    1.7618   -0.6272   -1.4806 C   0  0  0  0  0  0  0  0  0  0  0  0
    1.6256   -5.1426   -2.8766 C   0  0  0  0  0  0  0  0  0  0  0  0
   -0.9355    2.2373    0.6249 H   0  0  0  0  0  0  0  0  0  0  0  0
    1.3262    1.6774   -0.1905 H   0  0  0  0  0  0  0  0  0  0  0  0
   -1.6563   -2.1092    0.9720 H   0  0  0  0  0  0  0  0  0  0  0  0
   -2.1396    0.2781    1.6701 H   0  0  0  0  0  0  0  0  0  0  0  0
   -2.3997    0.1653   -0.0762 H   0  0  0  0  0  0  0  0  0  0  0  0
    1.3938   -2.9582    2.0703 H   0  0  0  0  0  0  0  0  0  0  0  0
    1.8650   -5.4291    1.5866 H   0  0  0  0  0  0  0  0  0  0  0  0
    3.2697   -4.4265    1.2057 H   0  0  0  0  0  0  0  0  0  0  0  0
    2.7771   -6.0847   -0.6740 H   0  0  0  0  0  0  0  0  0  0  0  0
   -0.8231   -2.5767   -2.2433 H   0  0  0  0  0  0  0  0  0  0  0  0
    0.4197   -3.0504   -3.3496 H   0  0  0  0  0  0  0  0  0  0  0  0
   -0.1225   -0.4589   -2.5292 H   0  0  0  0  0  0  0  0  0  0  0  0
    1.2036   -0.9880   -3.5347 H   0  0  0  0  0  0  0  0  0  0  0  0
    2.2363    0.3007   -1.8208 H   0  0  0  0  0  0  0  0  0  0  0  0
    2.5818   -1.3377   -1.3225 H   0  0  0  0  0  0  0  0  0  0  0  0
    2.1894   -6.0814   -2.9012 H   0  0  0  0  0  0  0  0  0  0  0  0
    2.1071   -4.4617   -3.5858 H   0  0  0  0  0  0  0  0  0  0  0  0
    0.6111   -5.3669   -3.2233 H   0  0  0  0  0  0  0  0  0  0  0  0
  1  2  2  0  0  0  0
  1  6  1  0  0  0  0
  1 17  1  0  0  0  0
  2  3  1  0  0  0  0
  2 18  1  0  0  0  0
  3  4  1  0  0  0  0
  3 15  1  0  0  0  0
  4  5  2  0  0  0  0
  4  7  1  0  0  0  0
  5  6  1  0  0  0  0
  5 19  1  0  0  0  0
  6 20  1  0  0  0  0
  6 21  1  0  0  0  0
  7  8  2  0  0  0  0
  7 12  1  0  0  0  0
  8  9  1  0  0  0  0
  8 22  1  0  0  0  0
  9 10  1  0  0  0  0
  9 23  1  0  0  0  0
  9 24  1  0  0  0  0
 10 11  2  0  0  0  0
 10 25  1  0  0  0  0
 11 12  1  0  0  0  0
 11 16  1  0  0  0  0
 12 13  1  0  0  0  0
 13 14  1  0  0  0  0
 13 26  1  0  0  0  0
 13 27  1  0  0  0  0
 14 15  1  0  0  0  0
 14 28  1  0  0  0  0
 14 29  1  0  0  0  0
 15 30  1  0  0  0  0
 15 31  1  0  0  0  0
 16 32  1  0  0  0  0
 16 33  1  0  0  0  0
 16 34  1  0  0  0  0
M  END
$$$$
