
 OpenBabel03142217213D

 39 42  0  0  0  0  0  0  0  0999 V2000
   -2.8124   -1.1620    0.0012 C   0  0  0  0  0  0  0  0  0  0  0  0
   -3.2194    0.1293    0.0345 C   0  0  0  0  0  0  0  0  0  0  0  0
   -2.2645    1.3133   -0.0147 C   0  0  0  0  0  0  0  0  0  0  0  0
   -2.7075    2.4541   -0.0580 O   0  0  0  0  0  0  0  0  0  0  0  0
   -0.8532    0.9489   -0.0165 C   0  0  0  0  0  0  0  0  0  0  0  0
   -0.4675   -0.4281   -0.0538 C   0  0  0  0  0  0  0  0  0  0  0  0
   -1.3587   -1.5502   -0.0527 C   0  0  0  0  0  0  0  0  0  0  0  0
   -0.9973   -2.7166   -0.1043 O   0  0  0  0  0  0  0  0  0  0  0  0
    0.8933   -0.4496   -0.0886 C   0  0  0  0  0  0  0  0  0  0  0  0
    1.3444    0.8378   -0.0597 N   0  0  0  0  0  0  0  0  0  0  0  0
    0.3166    1.7485   -0.0072 C   0  0  0  0  0  0  0  0  0  0  0  0
    0.5041    3.2176    0.0422 C   0  0  0  0  0  0  0  0  0  0  0  0
    1.5886    3.8587   -0.5775 C   0  0  0  0  0  0  0  0  0  0  0  0
    1.7370    5.2534   -0.5397 C   0  0  0  0  0  0  0  0  0  0  0  0
    0.7832    6.0429    0.0920 C   0  0  0  0  0  0  0  0  0  0  0  0
   -0.2978    5.4342    0.7156 C   0  0  0  0  0  0  0  0  0  0  0  0
   -0.4123    4.0399    0.7167 C   0  0  0  0  0  0  0  0  0  0  0  0
    2.8008    0.8868   -0.0599 C   0  0  0  0  0  0  0  0  0  0  0  0
    3.1965   -0.5641    0.2780 C   0  0  0  0  0  0  0  0  0  0  0  0
    1.9921   -1.4307   -0.1317 C   0  0  0  0  0  0  0  0  0  0  0  0
   -4.6559    0.5804    0.1038 C   0  0  0  0  0  0  0  0  0  0  0  0
   -3.7063   -2.3738    0.0218 C   0  0  0  0  0  0  0  0  0  0  0  0
    2.3354    3.2953   -1.1266 H   0  0  0  0  0  0  0  0  0  0  0  0
    2.5909    5.7228   -1.0226 H   0  0  0  0  0  0  0  0  0  0  0  0
    0.8774    7.1249    0.0985 H   0  0  0  0  0  0  0  0  0  0  0  0
   -1.0633    6.0351    1.1997 H   0  0  0  0  0  0  0  0  0  0  0  0
   -1.2532    3.6126    1.2521 H   0  0  0  0  0  0  0  0  0  0  0  0
    3.1542    1.6010    0.6862 H   0  0  0  0  0  0  0  0  0  0  0  0
    3.1241    1.1561   -1.0700 H   0  0  0  0  0  0  0  0  0  0  0  0
    3.3536   -0.6558    1.3600 H   0  0  0  0  0  0  0  0  0  0  0  0
    4.1217   -0.8787   -0.2153 H   0  0  0  0  0  0  0  0  0  0  0  0
    1.8433   -2.2649    0.5577 H   0  0  0  0  0  0  0  0  0  0  0  0
    2.1133   -1.8205   -1.1480 H   0  0  0  0  0  0  0  0  0  0  0  0
   -5.3788   -0.2364    0.1162 H   0  0  0  0  0  0  0  0  0  0  0  0
   -4.9022    1.2045   -0.7623 H   0  0  0  0  0  0  0  0  0  0  0  0
   -4.8246    1.1653    1.0138 H   0  0  0  0  0  0  0  0  0  0  0  0
   -4.7704   -2.1479    0.0665 H   0  0  0  0  0  0  0  0  0  0  0  0
   -3.4749   -3.0000    0.8892 H   0  0  0  0  0  0  0  0  0  0  0  0
   -3.5467   -2.9685   -0.8853 H   0  0  0  0  0  0  0  0  0  0  0  0
  1  2  2  0  0  0  0
  1  7  1  0  0  0  0
  1 22  1  0  0  0  0
  2  3  1  0  0  0  0
  2 21  1  0  0  0  0
  3  4  2  0  0  0  0
  3  5  1  0  0  0  0
  5  6  1  0  0  0  0
  5 11  2  0  0  0  0
  6  7  1  0  0  0  0
  6  9  2  0  0  0  0
  7  8  2  0  0  0  0
  9 10  1  0  0  0  0
  9 20  1  0  0  0  0
 10 11  1  0  0  0  0
 10 18  1  0  0  0  0
 11 12  1  0  0  0  0
 12 13  1  0  0  0  0
 12 17  2  0  0  0  0
 13 14  2  0  0  0  0
 13 23  1  0  0  0  0
 14 15  1  0  0  0  0
 14 24  1  0  0  0  0
 15 16  2  0  0  0  0
 15 25  1  0  0  0  0
 16 17  1  0  0  0  0
 16 26  1  0  0  0  0
 17 27  1  0  0  0  0
 18 19  1  0  0  0  0
 18 28  1  0  0  0  0
 18 29  1  0  0  0  0
 19 20  1  0  0  0  0
 19 30  1  0  0  0  0
 19 31  1  0  0  0  0
 20 32  1  0  0  0  0
 20 33  1  0  0  0  0
 21 34  1  0  0  0  0
 21 35  1  0  0  0  0
 21 36  1  0  0  0  0
 22 37  1  0  0  0  0
 22 38  1  0  0  0  0
 22 39  1  0  0  0  0
M  END
$$$$
