
 OpenBabel03142217213D

 35 37  0  0  0  0  0  0  0  0999 V2000
   -3.1734    0.1967    0.0636 C   0  0  0  0  0  0  0  0  0  0  0  0
   -2.8026   -1.0973    0.0128 C   0  0  0  0  0  0  0  0  0  0  0  0
   -1.3689   -1.5102   -0.0562 C   0  0  0  0  0  0  0  0  0  0  0  0
   -1.0201   -2.6822   -0.1122 O   0  0  0  0  0  0  0  0  0  0  0  0
   -0.4632   -0.3867   -0.0457 C   0  0  0  0  0  0  0  0  0  0  0  0
   -0.8430    1.0007    0.0104 C   0  0  0  0  0  0  0  0  0  0  0  0
   -2.2496    1.3736    0.0664 C   0  0  0  0  0  0  0  0  0  0  0  0
   -2.7156    2.5033    0.1209 O   0  0  0  0  0  0  0  0  0  0  0  0
    0.3315    1.7822    0.0016 C   0  0  0  0  0  0  0  0  0  0  0  0
    1.3489    0.8670   -0.0427 N   0  0  0  0  0  0  0  0  0  0  0  0
    0.8983   -0.4150   -0.0830 C   0  0  0  0  0  0  0  0  0  0  0  0
    2.0026   -1.3904   -0.1472 C   0  0  0  0  0  0  0  0  0  0  0  0
    3.2120   -0.5145    0.2437 C   0  0  0  0  0  0  0  0  0  0  0  0
    2.8034    0.9382   -0.0725 C   0  0  0  0  0  0  0  0  0  0  0  0
    0.5873    3.2125    0.0313 C   0  0  0  0  0  0  0  0  0  0  0  0
    1.7069    3.7129    0.0585 O   0  0  0  0  0  0  0  0  0  0  0  0
   -0.5604    3.9256    0.0132 O   0  0  0  0  0  0  0  0  0  0  0  0
   -0.4488    5.3547    0.0771 C   0  0  0  0  0  0  0  0  0  0  0  0
   -0.2251    5.9353   -1.3068 C   0  0  0  0  0  0  0  0  0  0  0  0
   -3.7796   -2.2330    0.0245 C   0  0  0  0  0  0  0  0  0  0  0  0
   -4.2228    0.4742    0.1127 H   0  0  0  0  0  0  0  0  0  0  0  0
    2.1112   -1.7786   -1.1647 H   0  0  0  0  0  0  0  0  0  0  0  0
    1.8701   -2.2245    0.5457 H   0  0  0  0  0  0  0  0  0  0  0  0
    4.1295   -0.8195   -0.2680 H   0  0  0  0  0  0  0  0  0  0  0  0
    3.3897   -0.6139    1.3228 H   0  0  0  0  0  0  0  0  0  0  0  0
    3.0996    1.2388   -1.0819 H   0  0  0  0  0  0  0  0  0  0  0  0
    3.1613    1.6409    0.6828 H   0  0  0  0  0  0  0  0  0  0  0  0
    0.3429    5.6582    0.7718 H   0  0  0  0  0  0  0  0  0  0  0  0
   -1.3931    5.7349    0.4822 H   0  0  0  0  0  0  0  0  0  0  0  0
    0.7009    5.5553   -1.7493 H   0  0  0  0  0  0  0  0  0  0  0  0
   -0.1690    7.0272   -1.2661 H   0  0  0  0  0  0  0  0  0  0  0  0
   -1.0409    5.6509   -1.9798 H   0  0  0  0  0  0  0  0  0  0  0  0
   -4.8156   -1.8834    0.0710 H   0  0  0  0  0  0  0  0  0  0  0  0
   -3.6052   -2.8755    0.8946 H   0  0  0  0  0  0  0  0  0  0  0  0
   -3.6717   -2.8393   -0.8810 H   0  0  0  0  0  0  0  0  0  0  0  0
  1  2  2  0  0  0  0
  1  7  1  0  0  0  0
  1 21  1  0  0  0  0
  2  3  1  0  0  0  0
  2 20  1  0  0  0  0
  3  4  2  0  0  0  0
  3  5  1  0  0  0  0
  5  6  1  0  0  0  0
  5 11  2  0  0  0  0
  6  7  1  0  0  0  0
  6  9  2  0  0  0  0
  7  8  2  0  0  0  0
  9 10  1  0  0  0  0
  9 15  1  0  0  0  0
 10 11  1  0  0  0  0
 10 14  1  0  0  0  0
 11 12  1  0  0  0  0
 12 13  1  0  0  0  0
 12 22  1  0  0  0  0
 12 23  1  0  0  0  0
 13 14  1  0  0  0  0
 13 24  1  0  0  0  0
 13 25  1  0  0  0  0
 14 26  1  0  0  0  0
 14 27  1  0  0  0  0
 15 16  2  0  0  0  0
 15 17  1  0  0  0  0
 17 18  1  0  0  0  0
 18 19  1  0  0  0  0
 18 28  1  0  0  0  0
 18 29  1  0  0  0  0
 19 30  1  0  0  0  0
 19 31  1  0  0  0  0
 19 32  1  0  0  0  0
 20 33  1  0  0  0  0
 20 34  1  0  0  0  0
 20 35  1  0  0  0  0
M  END
$$$$
