
 OpenBabel03142217213D

 42 45  0  0  1  0  0  0  0  0999 V2000
    0.9512    0.0615   -0.0619 C   0  0  0  0  0  0  0  0  0  0  0  0
    0.2710   -0.5311   -1.0802 C   0  0  0  0  0  0  0  0  0  0  0  0
   -1.2490   -0.5311   -1.0802 C   0  0  0  0  0  0  0  0  0  0  0  0
   -1.8844   -1.0848   -2.0314 O   0  0  0  0  0  0  0  0  0  0  0  0
   -2.0090    0.1311    0.0575 C   0  0  0  0  0  0  0  0  0  0  0  0
   -1.6079    1.3379    0.4769 C   0  0  0  0  0  0  0  0  0  0  0  0
    2.4712    0.0615   -0.0619 C   0  0  0  0  0  0  0  0  0  0  0  0
    3.1067    0.6152    0.8893 O   0  0  0  0  0  0  0  0  0  0  0  0
   -2.3001    2.0999    1.6230 C   0  0  1  0  0  0  0  0  0  0  0  0
   -3.6149    2.5744    1.0513 C   0  0  2  0  0  0  0  0  0  0  0  0
   -3.2055   -0.6167    0.6757 N   0  0  0  0  0  0  0  0  0  0  0  0
   -4.4235    0.1741    0.2542 C   0  0  0  0  0  0  0  0  0  0  0  0
   -4.3090    1.1519   -0.8842 C   0  0  2  0  0  0  0  0  0  0  0  0
   -3.8519    2.5095   -0.4322 C   0  0  1  0  0  0  0  0  0  0  0  0
   -5.5661    2.4552   -1.0323 N   0  0  0  0  0  0  0  0  0  0  0  0
   -4.2995    3.6693    1.6419 O   0  0  0  0  0  0  0  0  0  0  0  0
   -3.4738    4.8237    1.5967 C   0  0  0  0  0  0  0  0  0  0  0  0
   -2.4996    1.2213    2.8471 C   0  0  0  0  0  0  0  0  0  0  0  0
   -3.1372    1.9145    3.9098 O   0  0  0  0  0  0  0  0  0  0  0  0
   -2.3841    2.7820    4.7445 C   0  0  0  0  0  0  0  0  0  0  0  0
   -1.1395    2.9381    4.5403 O   0  0  0  0  0  0  0  0  0  0  0  0
   -3.0442    3.4997    5.8446 N   0  0  0  0  0  0  0  0  0  0  0  0
    1.0310   -1.1933   -2.2178 C   0  0  0  0  0  0  0  0  0  0  0  0
    2.4212    0.0615   -0.0619 N   0  0  0  0  0  0  0  0  0  0  0  0
   -1.7032    2.9192    1.9655 H   0  0  0  0  0  0  0  0  0  0  0  0
   -4.7475    0.7283    1.1102 H   0  0  0  0  0  0  0  0  0  0  0  0
   -5.0935   -0.5720   -0.1190 H   0  0  0  0  0  0  0  0  0  0  0  0
   -3.9676    0.4364   -1.6029 H   0  0  0  0  0  0  0  0  0  0  0  0
   -3.0485    3.1659   -0.6941 H   0  0  0  0  0  0  0  0  0  0  0  0
   -5.8301    2.8453   -1.9370 H   0  0  0  0  0  0  0  0  0  0  0  0
   -3.9897    5.6488    2.0417 H   0  0  0  0  0  0  0  0  0  0  0  0
   -3.2408    5.0560    0.5786 H   0  0  0  0  0  0  0  0  0  0  0  0
   -2.5688    4.6363    2.1359 H   0  0  0  0  0  0  0  0  0  0  0  0
   -3.1032    0.3813    2.5731 H   0  0  0  0  0  0  0  0  0  0  0  0
   -1.5340    0.9133    3.1900 H   0  0  0  0  0  0  0  0  0  0  0  0
   -4.0083    3.3788    6.0027 H   0  0  0  0  0  0  0  0  0  0  0  0
   -2.5220    4.1011    6.4232 H   0  0  0  0  0  0  0  0  0  0  0  0
    2.0830   -1.0949   -2.0489 H   0  0  0  0  0  0  0  0  0  0  0  0
    0.7725   -0.7205   -3.1422 H   0  0  0  0  0  0  0  0  0  0  0  0
    0.7725   -2.2306   -2.2633 H   0  0  0  0  0  0  0  0  0  0  0  0
    2.9135   -0.2847    0.7172 H   0  0  0  0  0  0  0  0  0  0  0  0
    2.9135    0.4078   -0.8410 H   0  0  0  0  0  0  0  0  0  0  0  0
  1  2  2  0  0  0  0
  1  7  1  0  0  0  0
  1 24  1  0  0  0  0
  2  3  1  0  0  0  0
  2 23  1  0  0  0  0
  3  4  2  0  0  0  0
  3  5  1  0  0  0  0
  5  6  2  0  0  0  0
  5 11  1  0  0  0  0
  6  7  1  0  0  0  0
  6  9  1  0  0  0  0
  7  8  2  0  0  0  0
  9 10  1  0  0  0  0
  9 18  1  0  0  0  0
  9 25  1  1  0  0  0
 10 11  1  0  0  0  0
 10 14  1  0  0  0  0
 10 16  1  1  0  0  0
 11 12  1  0  0  0  0
 12 13  1  0  0  0  0
 12 26  1  0  0  0  0
 12 27  1  0  0  0  0
 13 14  1  0  0  0  0
 13 15  1  0  0  0  0
 13 28  1  6  0  0  0
 14 15  1  0  0  0  0
 14 29  1  6  0  0  0
 15 30  1  0  0  0  0
 16 17  1  0  0  0  0
 17 31  1  0  0  0  0
 17 32  1  0  0  0  0
 17 33  1  0  0  0  0
 18 19  1  0  0  0  0
 18 34  1  0  0  0  0
 18 35  1  0  0  0  0
 19 20  1  0  0  0  0
 20 21  2  0  0  0  0
 20 22  1  0  0  0  0
 22 36  1  0  0  0  0
 22 37  1  0  0  0  0
 23 38  1  0  0  0  0
 23 39  1  0  0  0  0
 23 40  1  0  0  0  0
 24 41  1  0  0  0  0
 24 42  1  0  0  0  0
M  END
$$$$
