
 OpenBabel03142217213D

 36 37  0  0  1  0  0  0  0  0999 V2000
    1.4238   -0.3154    0.1583 N   0  0  0  0  0  0  0  0  0  0  0  0
    0.5281   -1.3926    0.0170 C   0  0  0  0  0  0  0  0  0  0  0  0
   -0.8085   -1.1960    0.0459 C   0  0  0  0  0  0  0  0  0  0  0  0
   -1.4406    0.1810    0.1783 C   0  0  1  0  0  0  0  0  0  0  0  0
   -0.3821    1.2738    0.1461 C   0  0  0  0  0  0  0  0  0  0  0  0
    0.9204    0.9792    0.1272 C   0  0  0  0  0  0  0  0  0  0  0  0
   -2.5735    0.3971   -0.8845 C   0  0  2  0  0  0  0  0  0  0  0  0
   -2.0417    0.2778   -2.2972 C   0  0  0  0  0  0  0  0  0  0  0  0
   -1.8408    1.3800   -3.0263 C   0  0  0  0  0  0  0  0  0  0  0  0
   -2.1735    2.6632   -2.5937 N   0  0  0  0  0  0  0  0  0  0  0  0
   -2.9930    2.8005   -1.4533 C   0  0  0  0  0  0  0  0  0  0  0  0
   -3.2450    1.7431   -0.6568 C   0  0  0  0  0  0  0  0  0  0  0  0
   -3.5701    4.1383   -1.0682 C   0  0  0  0  0  0  0  0  0  0  0  0
   -1.5217    3.8117   -3.2261 C   0  0  0  0  0  0  0  0  0  0  0  0
    1.0177   -2.7923   -0.2459 C   0  0  0  0  0  0  0  0  0  0  0  0
    2.8408   -0.4722    0.4997 C   0  0  0  0  0  0  0  0  0  0  0  0
   -1.4866   -2.0383   -0.0551 H   0  0  0  0  0  0  0  0  0  0  0  0
   -1.9073    0.2234    1.1725 H   0  0  0  0  0  0  0  0  0  0  0  0
   -0.6930    2.3110    0.1257 H   0  0  0  0  0  0  0  0  0  0  0  0
    1.6682    1.7665    0.0955 H   0  0  0  0  0  0  0  0  0  0  0  0
   -3.3441   -0.3744   -0.7568 H   0  0  0  0  0  0  0  0  0  0  0  0
   -1.7490   -0.6968   -2.6688 H   0  0  0  0  0  0  0  0  0  0  0  0
   -1.3682    1.3239   -4.0050 H   0  0  0  0  0  0  0  0  0  0  0  0
   -3.8620    1.8455    0.2312 H   0  0  0  0  0  0  0  0  0  0  0  0
   -3.2808    4.9473   -1.7380 H   0  0  0  0  0  0  0  0  0  0  0  0
   -3.2318    4.4167   -0.0610 H   0  0  0  0  0  0  0  0  0  0  0  0
   -4.6632    4.0899   -1.0645 H   0  0  0  0  0  0  0  0  0  0  0  0
   -0.8311    3.5056   -4.0202 H   0  0  0  0  0  0  0  0  0  0  0  0
   -0.9298    4.3605   -2.4841 H   0  0  0  0  0  0  0  0  0  0  0  0
   -2.2600    4.4835   -3.6725 H   0  0  0  0  0  0  0  0  0  0  0  0
    2.0974   -2.8625   -0.3866 H   0  0  0  0  0  0  0  0  0  0  0  0
    0.5711   -3.1736   -1.1713 H   0  0  0  0  0  0  0  0  0  0  0  0
    0.7343   -3.4579    0.5767 H   0  0  0  0  0  0  0  0  0  0  0  0
    3.1258   -1.5004    0.7313 H   0  0  0  0  0  0  0  0  0  0  0  0
    3.0671    0.1132    1.3997 H   0  0  0  0  0  0  0  0  0  0  0  0
    3.4742   -0.1045   -0.3151 H   0  0  0  0  0  0  0  0  0  0  0  0
  1  2  1  0  0  0  0
  1  6  1  0  0  0  0
  1 16  1  0  0  0  0
  2  3  2  0  0  0  0
  2 15  1  0  0  0  0
  3  4  1  0  0  0  0
  3 17  1  0  0  0  0
  4  5  1  0  0  0  0
  4  7  1  0  0  0  0
  4 18  1  1  0  0  0
  5  6  2  0  0  0  0
  5 19  1  0  0  0  0
  6 20  1  0  0  0  0
  7  8  1  0  0  0  0
  7 12  1  0  0  0  0
  7 21  1  1  0  0  0
  8  9  2  0  0  0  0
  8 22  1  0  0  0  0
  9 10  1  0  0  0  0
  9 23  1  0  0  0  0
 10 11  1  0  0  0  0
 10 14  1  0  0  0  0
 11 12  2  0  0  0  0
 11 13  1  0  0  0  0
 12 24  1  0  0  0  0
 13 25  1  0  0  0  0
 13 26  1  0  0  0  0
 13 27  1  0  0  0  0
 14 28  1  0  0  0  0
 14 29  1  0  0  0  0
 14 30  1  0  0  0  0
 15 31  1  0  0  0  0
 15 32  1  0  0  0  0
 15 33  1  0  0  0  0
 16 34  1  0  0  0  0
 16 35  1  0  0  0  0
 16 36  1  0  0  0  0
M  END
$$$$
