
 OpenBabel03142217213D

 26 27  0  0  0  0  0  0  0  0999 V2000
   -1.0419    0.0150    0.0190 C   0  0  0  0  0  0  0  0  0  0  0  0
   -0.3190    1.2046    0.0216 C   0  0  0  0  0  0  0  0  0  0  0  0
    1.0630    1.1348    0.0254 C   0  0  0  0  0  0  0  0  0  0  0  0
    1.7610   -0.0215    0.0161 N   0  0  0  0  0  0  0  0  0  0  0  0
    1.0589   -1.1896    0.0058 C   0  0  0  0  0  0  0  0  0  0  0  0
   -0.3379   -1.1936    0.0197 C   0  0  0  0  0  0  0  0  0  0  0  0
    1.8473   -2.4440   -0.0657 C   0  0  0  0  0  0  0  0  0  0  0  0
    3.2433   -2.4361   -0.1333 C   0  0  0  0  0  0  0  0  0  0  0  0
    3.9453   -3.6374   -0.2642 C   0  0  0  0  0  0  0  0  0  0  0  0
    3.2201   -4.8279   -0.3083 C   0  0  0  0  0  0  0  0  0  0  0  0
    1.8416   -4.7626   -0.2209 C   0  0  0  0  0  0  0  0  0  0  0  0
    1.1453   -3.6117   -0.1027 N   0  0  0  0  0  0  0  0  0  0  0  0
    5.4381   -3.6493   -0.3762 C   0  0  0  0  0  0  0  0  0  0  0  0
   -2.5393    0.0065   -0.0050 C   0  0  0  0  0  0  0  0  0  0  0  0
   -0.8135    2.1699    0.0158 H   0  0  0  0  0  0  0  0  0  0  0  0
    1.6673    2.0376    0.0276 H   0  0  0  0  0  0  0  0  0  0  0  0
   -0.8763   -2.1380    0.0128 H   0  0  0  0  0  0  0  0  0  0  0  0
    3.7777   -1.4901   -0.0994 H   0  0  0  0  0  0  0  0  0  0  0  0
    3.7161   -5.7864   -0.4154 H   0  0  0  0  0  0  0  0  0  0  0  0
    1.2376   -5.6652   -0.2514 H   0  0  0  0  0  0  0  0  0  0  0  0
    5.8513   -2.6370   -0.3166 H   0  0  0  0  0  0  0  0  0  0  0  0
    5.7386   -4.0775   -1.3376 H   0  0  0  0  0  0  0  0  0  0  0  0
    5.8743   -4.2391    0.4358 H   0  0  0  0  0  0  0  0  0  0  0  0
   -2.9466    1.0226   -0.0089 H   0  0  0  0  0  0  0  0  0  0  0  0
   -2.9288   -0.5108    0.8774 H   0  0  0  0  0  0  0  0  0  0  0  0
   -2.8962   -0.5019   -0.9068 H   0  0  0  0  0  0  0  0  0  0  0  0
  1  2  1  0  0  0  0
  1  6  2  0  0  0  0
  1 14  1  0  0  0  0
  2  3  2  0  0  0  0
  2 15  1  0  0  0  0
  3  4  1  0  0  0  0
  3 16  1  0  0  0  0
  4  5  2  0  0  0  0
  5  6  1  0  0  0  0
  5  7  1  0  0  0  0
  6 17  1  0  0  0  0
  7  8  1  0  0  0  0
  7 12  2  0  0  0  0
  8  9  2  0  0  0  0
  8 18  1  0  0  0  0
  9 10  1  0  0  0  0
  9 13  1  0  0  0  0
 10 11  2  0  0  0  0
 10 19  1  0  0  0  0
 11 12  1  0  0  0  0
 11 20  1  0  0  0  0
 13 21  1  0  0  0  0
 13 22  1  0  0  0  0
 13 23  1  0  0  0  0
 14 24  1  0  0  0  0
 14 25  1  0  0  0  0
 14 26  1  0  0  0  0
M  END
$$$$
