
 OpenBabel03142217213D

 27 29  0  0  0  0  0  0  0  0999 V2000
    3.5747   -1.0611   -0.3191 C   0  0  0  0  0  0  0  0  0  0  0  0
    3.6822    0.2937   -0.6222 C   0  0  0  0  0  0  0  0  0  0  0  0
    2.5880    1.1381   -0.4337 C   0  0  0  0  0  0  0  0  0  0  0  0
    1.3718    0.6256    0.0300 C   0  0  0  0  0  0  0  0  0  0  0  0
    1.2539   -0.7438    0.3370 C   0  0  0  0  0  0  0  0  0  0  0  0
    2.3681   -1.5771    0.1687 C   0  0  0  0  0  0  0  0  0  0  0  0
    0.0160   -1.3197    0.6708 N   0  0  0  0  0  0  0  0  0  0  0  0
   -1.2333   -0.7658    0.3404 C   0  0  0  0  0  0  0  0  0  0  0  0
   -1.3782    0.5993    0.0360 C   0  0  0  0  0  0  0  0  0  0  0  0
   -0.0137    1.7436    0.1970 S   0  0  0  0  0  0  0  0  0  0  0  0
   -2.6059    1.0868   -0.4249 C   0  0  0  0  0  0  0  0  0  0  0  0
   -3.6863    0.2248   -0.6281 C   0  0  0  0  0  0  0  0  0  0  0  0
   -3.5472   -1.1285   -0.3243 C   0  0  0  0  0  0  0  0  0  0  0  0
   -2.3322   -1.6163    0.1670 C   0  0  0  0  0  0  0  0  0  0  0  0
   -4.8057    0.8222   -1.1368 O   0  0  0  0  0  0  0  0  0  0  0  0
   -5.8891   -0.0321   -1.4802 C   0  0  0  0  0  0  0  0  0  0  0  0
    4.4199   -1.7244   -0.4829 H   0  0  0  0  0  0  0  0  0  0  0  0
    4.6115    0.6908   -1.0200 H   0  0  0  0  0  0  0  0  0  0  0  0
    2.6826    2.1939   -0.6777 H   0  0  0  0  0  0  0  0  0  0  0  0
    2.2996   -2.6405    0.3723 H   0  0  0  0  0  0  0  0  0  0  0  0
    0.0264   -2.2768    0.9935 H   0  0  0  0  0  0  0  0  0  0  0  0
   -2.7209    2.1414   -0.6630 H   0  0  0  0  0  0  0  0  0  0  0  0
   -4.3543   -1.8363   -0.4784 H   0  0  0  0  0  0  0  0  0  0  0  0
   -2.2375   -2.6798    0.3685 H   0  0  0  0  0  0  0  0  0  0  0  0
   -6.6864    0.5900   -1.8975 H   0  0  0  0  0  0  0  0  0  0  0  0
   -6.2880   -0.5344   -0.5931 H   0  0  0  0  0  0  0  0  0  0  0  0
   -5.5945   -0.7568   -2.2470 H   0  0  0  0  0  0  0  0  0  0  0  0
  1  2  1  0  0  0  0
  1  6  2  0  0  0  0
  1 17  1  0  0  0  0
  2  3  2  0  0  0  0
  2 18  1  0  0  0  0
  3  4  1  0  0  0  0
  3 19  1  0  0  0  0
  4  5  2  0  0  0  0
  4 10  1  0  0  0  0
  5  6  1  0  0  0  0
  5  7  1  0  0  0  0
  6 20  1  0  0  0  0
  7  8  1  0  0  0  0
  7 21  1  0  0  0  0
  8  9  1  0  0  0  0
  8 14  2  0  0  0  0
  9 10  1  0  0  0  0
  9 11  2  0  0  0  0
 11 12  1  0  0  0  0
 11 22  1  0  0  0  0
 12 13  2  0  0  0  0
 12 15  1  0  0  0  0
 13 14  1  0  0  0  0
 13 23  1  0  0  0  0
 14 24  1  0  0  0  0
 15 16  1  0  0  0  0
 16 25  1  0  0  0  0
 16 26  1  0  0  0  0
 16 27  1  0  0  0  0
M  END
$$$$
