
 OpenBabel03142217213D

 48 51  0  0  1  0  0  0  0  0999 V2000
   -1.3776   -0.0999   -0.1159 N   0  0  0  0  0  0  0  0  0  0  0  0
   -0.8012    1.1547    0.0640 C   0  0  0  0  0  0  0  0  0  0  0  0
    0.5218    1.3707    0.0522 C   0  0  0  0  0  0  0  0  0  0  0  0
    1.5009    0.2310   -0.1908 C   0  0  2  0  0  0  0  0  0  0  0  0
    0.7987   -1.1220   -0.2143 C   0  0  0  0  0  0  0  0  0  0  0  0
   -0.5385   -1.2074   -0.1973 C   0  0  0  0  0  0  0  0  0  0  0  0
    2.7259    0.2306    0.7694 C   0  0  2  0  0  0  0  0  0  0  0  0
    2.3607    0.1355    2.2422 C   0  0  0  0  0  0  0  0  0  0  0  0
    2.9696    0.9049    3.1560 C   0  0  0  0  0  0  0  0  0  0  0  0
    3.9372    1.8536    2.8386 N   0  0  0  0  0  0  0  0  0  0  0  0
    4.1989    2.1105    1.4967 C   0  0  0  0  0  0  0  0  0  0  0  0
    3.6590    1.4044    0.4931 C   0  0  0  0  0  0  0  0  0  0  0  0
    4.7712    2.4622    3.8970 C   0  0  0  0  0  0  0  0  0  0  0  0
    4.2922    3.7981    4.4291 C   0  0  0  0  0  0  0  0  0  0  0  0
    3.0960    4.3912    4.0303 C   0  0  0  0  0  0  0  0  0  0  0  0
    2.7387    5.6267    4.5678 C   0  0  0  0  0  0  0  0  0  0  0  0
    3.5755    6.2375    5.4920 C   0  0  0  0  0  0  0  0  0  0  0  0
    4.7406    5.5845    5.8470 C   0  0  0  0  0  0  0  0  0  0  0  0
    5.1137    4.3893    5.3410 N   0  0  0  0  0  0  0  0  0  0  0  0
   -2.8212   -0.2244   -0.4163 C   0  0  0  0  0  0  0  0  0  0  0  0
   -3.7270   -0.4300    0.7817 C   0  0  0  0  0  0  0  0  0  0  0  0
   -3.2977   -1.0679    1.9453 C   0  0  0  0  0  0  0  0  0  0  0  0
   -4.2205   -1.3295    2.9552 C   0  0  0  0  0  0  0  0  0  0  0  0
   -5.5466   -0.9530    2.7856 C   0  0  0  0  0  0  0  0  0  0  0  0
   -5.8971   -0.3208    1.6074 C   0  0  0  0  0  0  0  0  0  0  0  0
   -5.0263   -0.0591    0.6090 N   0  0  0  0  0  0  0  0  0  0  0  0
   -1.5059    1.9711    0.1983 H   0  0  0  0  0  0  0  0  0  0  0  0
    0.9154    2.3722    0.1791 H   0  0  0  0  0  0  0  0  0  0  0  0
    1.8915    0.3724   -1.2100 H   0  0  0  0  0  0  0  0  0  0  0  0
    1.4016   -2.0207   -0.2894 H   0  0  0  0  0  0  0  0  0  0  0  0
   -1.0451   -2.1669   -0.2554 H   0  0  0  0  0  0  0  0  0  0  0  0
    3.3145   -0.6704    0.5399 H   0  0  0  0  0  0  0  0  0  0  0  0
    1.6187   -0.5942    2.5479 H   0  0  0  0  0  0  0  0  0  0  0  0
    2.7380    0.8170    4.2141 H   0  0  0  0  0  0  0  0  0  0  0  0
    4.8914    2.9271    1.3090 H   0  0  0  0  0  0  0  0  0  0  0  0
    3.9130    1.6382   -0.5356 H   0  0  0  0  0  0  0  0  0  0  0  0
    5.7922    2.5971    3.5163 H   0  0  0  0  0  0  0  0  0  0  0  0
    4.8533    1.7683    4.7437 H   0  0  0  0  0  0  0  0  0  0  0  0
    2.4440    3.9101    3.3078 H   0  0  0  0  0  0  0  0  0  0  0  0
    1.8130    6.1056    4.2630 H   0  0  0  0  0  0  0  0  0  0  0  0
    3.3248    7.1994    5.9255 H   0  0  0  0  0  0  0  0  0  0  0  0
    5.4275    6.0163    6.5688 H   0  0  0  0  0  0  0  0  0  0  0  0
   -2.9831   -1.0651   -1.1033 H   0  0  0  0  0  0  0  0  0  0  0  0
   -3.1551    0.6714   -0.9567 H   0  0  0  0  0  0  0  0  0  0  0  0
   -2.2626   -1.3666    2.0699 H   0  0  0  0  0  0  0  0  0  0  0  0
   -3.9042   -1.8313    3.8652 H   0  0  0  0  0  0  0  0  0  0  0  0
   -6.2881   -1.1511    3.5501 H   0  0  0  0  0  0  0  0  0  0  0  0
   -6.9196   -0.0049    1.4236 H   0  0  0  0  0  0  0  0  0  0  0  0
  1  2  1  0  0  0  0
  1  6  1  0  0  0  0
  1 20  1  0  0  0  0
  2  3  2  0  0  0  0
  2 27  1  0  0  0  0
  3  4  1  0  0  0  0
  3 28  1  0  0  0  0
  4  5  1  0  0  0  0
  4  7  1  0  0  0  0
  4 29  1  6  0  0  0
  5  6  2  0  0  0  0
  5 30  1  0  0  0  0
  6 31  1  0  0  0  0
  7  8  1  0  0  0  0
  7 12  1  0  0  0  0
  7 32  1  6  0  0  0
  8  9  2  0  0  0  0
  8 33  1  0  0  0  0
  9 10  1  0  0  0  0
  9 34  1  0  0  0  0
 10 11  1  0  0  0  0
 10 13  1  0  0  0  0
 11 12  2  0  0  0  0
 11 35  1  0  0  0  0
 12 36  1  0  0  0  0
 13 14  1  0  0  0  0
 13 37  1  0  0  0  0
 13 38  1  0  0  0  0
 14 15  1  0  0  0  0
 14 19  2  0  0  0  0
 15 16  2  0  0  0  0
 15 39  1  0  0  0  0
 16 17  1  0  0  0  0
 16 40  1  0  0  0  0
 17 18  2  0  0  0  0
 17 41  1  0  0  0  0
 18 19  1  0  0  0  0
 18 42  1  0  0  0  0
 20 21  1  0  0  0  0
 20 43  1  0  0  0  0
 20 44  1  0  0  0  0
 21 22  1  0  0  0  0
 21 26  2  0  0  0  0
 22 23  2  0  0  0  0
 22 45  1  0  0  0  0
 23 24  1  0  0  0  0
 23 46  1  0  0  0  0
 24 25  2  0  0  0  0
 24 47  1  0  0  0  0
 25 26  1  0  0  0  0
 25 48  1  0  0  0  0
M  END
$$$$
