
 OpenBabel03142217213D

 28 30  0  0  0  0  0  0  0  0999 V2000
    3.4915   -1.0928   -0.5622 C   0  0  0  0  0  0  0  0  0  0  0  0
    3.6194    0.2727   -0.7741 C   0  0  0  0  0  0  0  0  0  0  0  0
    2.5554    1.1209   -0.4712 C   0  0  0  0  0  0  0  0  0  0  0  0
    1.3668    0.6038    0.0648 C   0  0  0  0  0  0  0  0  0  0  0  0
    1.2449   -0.7703    0.3449 C   0  0  0  0  0  0  0  0  0  0  0  0
    2.3129   -1.6103   -0.0160 C   0  0  0  0  0  0  0  0  0  0  0  0
    0.0406   -1.3268    0.9045 N   0  0  0  0  0  0  0  0  0  0  0  0
   -1.1889   -0.7677    0.3863 C   0  0  0  0  0  0  0  0  0  0  0  0
   -1.3049    0.5996    0.0717 C   0  0  0  0  0  0  0  0  0  0  0  0
    0.0322    1.7344    0.3729 S   0  0  0  0  0  0  0  0  0  0  0  0
   -2.5005    1.1158   -0.4523 C   0  0  0  0  0  0  0  0  0  0  0  0
   -3.5881    0.2790   -0.6881 C   0  0  0  0  0  0  0  0  0  0  0  0
   -3.4861   -1.0744   -0.3955 C   0  0  0  0  0  0  0  0  0  0  0  0
   -2.3034   -1.5898    0.1418 C   0  0  0  0  0  0  0  0  0  0  0  0
    0.0019   -2.3610    1.8543 C   0  0  0  0  0  0  0  0  0  0  0  0
   -1.0314   -2.9316    2.2258 O   0  0  0  0  0  0  0  0  0  0  0  0
    1.2716   -2.7520    2.5826 C   0  0  0  0  0  0  0  0  0  0  0  0
    4.3059   -1.7623   -0.8294 H   0  0  0  0  0  0  0  0  0  0  0  0
    4.5343    0.6811   -1.2007 H   0  0  0  0  0  0  0  0  0  0  0  0
    2.6530    2.1875   -0.6669 H   0  0  0  0  0  0  0  0  0  0  0  0
    2.2317   -2.6896    0.0876 H   0  0  0  0  0  0  0  0  0  0  0  0
   -2.5887    2.1757   -0.6805 H   0  0  0  0  0  0  0  0  0  0  0  0
   -4.5081    0.6843   -1.1038 H   0  0  0  0  0  0  0  0  0  0  0  0
   -4.3266   -1.7392   -0.5855 H   0  0  0  0  0  0  0  0  0  0  0  0
   -2.2655   -2.6603    0.3218 H   0  0  0  0  0  0  0  0  0  0  0  0
    2.1164   -2.0844    2.4287 H   0  0  0  0  0  0  0  0  0  0  0  0
    1.5413   -3.7726    2.2953 H   0  0  0  0  0  0  0  0  0  0  0  0
    1.0657   -2.7327    3.6584 H   0  0  0  0  0  0  0  0  0  0  0  0
  1  2  1  0  0  0  0
  1  6  2  0  0  0  0
  1 18  1  0  0  0  0
  2  3  2  0  0  0  0
  2 19  1  0  0  0  0
  3  4  1  0  0  0  0
  3 20  1  0  0  0  0
  4  5  2  0  0  0  0
  4 10  1  0  0  0  0
  5  6  1  0  0  0  0
  5  7  1  0  0  0  0
  6 21  1  0  0  0  0
  7  8  1  0  0  0  0
  7 15  1  0  0  0  0
  8  9  1  0  0  0  0
  8 14  2  0  0  0  0
  9 10  1  0  0  0  0
  9 11  2  0  0  0  0
 11 12  1  0  0  0  0
 11 22  1  0  0  0  0
 12 13  2  0  0  0  0
 12 23  1  0  0  0  0
 13 14  1  0  0  0  0
 13 24  1  0  0  0  0
 14 25  1  0  0  0  0
 15 16  2  0  0  0  0
 15 17  1  0  0  0  0
 17 26  1  0  0  0  0
 17 27  1  0  0  0  0
 17 28  1  0  0  0  0
M  END
$$$$
