
 OpenBabel03142217213D

 48 51  0  0  1  0  0  0  0  0999 V2000
   -1.4034   -0.1296   -0.0885 N   0  0  0  0  0  0  0  0  0  0  0  0
   -0.8230    1.1352   -0.0141 C   0  0  0  0  0  0  0  0  0  0  0  0
    0.5007    1.3535   -0.0165 C   0  0  0  0  0  0  0  0  0  0  0  0
    1.4747    0.1972   -0.1564 C   0  0  2  0  0  0  0  0  0  0  0  0
    0.7780   -1.1492   -0.0234 C   0  0  0  0  0  0  0  0  0  0  0  0
   -0.5611   -1.2373   -0.0115 C   0  0  0  0  0  0  0  0  0  0  0  0
    2.7180    0.2858    0.7690 C   0  0  2  0  0  0  0  0  0  0  0  0
    2.3986    0.3268    2.2530 C   0  0  0  0  0  0  0  0  0  0  0  0
    3.0688    1.1509    3.0723 C   0  0  0  0  0  0  0  0  0  0  0  0
    4.0491    2.0445    2.6436 N   0  0  0  0  0  0  0  0  0  0  0  0
    4.2340    2.2016    1.2730 C   0  0  0  0  0  0  0  0  0  0  0  0
    3.6367    1.4264    0.3546 C   0  0  0  0  0  0  0  0  0  0  0  0
    4.9699    2.6146    3.5762 C   0  0  0  0  0  0  0  0  0  0  0  0
    5.4426    1.8526    4.6641 C   0  0  0  0  0  0  0  0  0  0  0  0
    6.3541    2.3781    5.5808 C   0  0  0  0  0  0  0  0  0  0  0  0
    6.8062    3.6908    5.4171 C   0  0  0  0  0  0  0  0  0  0  0  0
    6.3668    4.4655    4.3384 C   0  0  0  0  0  0  0  0  0  0  0  0
    5.4564    3.9242    3.4248 C   0  0  0  0  0  0  0  0  0  0  0  0
    7.7485    4.2576    6.3848 N   0  0  0  0  0  0  0  0  0  0  0  0
    8.1057    3.5399    7.3297 O   0  0  0  0  0  0  0  0  0  0  0  0
    8.1281    5.4236    6.2098 O   0  0  0  0  0  0  0  0  0  0  0  0
   -2.7839   -0.2804   -0.4317 C   0  0  0  0  0  0  0  0  0  0  0  0
   -3.3935    0.5991   -1.3508 C   0  0  0  0  0  0  0  0  0  0  0  0
   -4.7313    0.4542   -1.7230 C   0  0  0  0  0  0  0  0  0  0  0  0
   -5.4852   -0.5845   -1.1699 C   0  0  0  0  0  0  0  0  0  0  0  0
   -4.9072   -1.4754   -0.2587 C   0  0  0  0  0  0  0  0  0  0  0  0
   -3.5646   -1.3205    0.1020 C   0  0  0  0  0  0  0  0  0  0  0  0
   -6.8918   -0.7414   -1.5510 N   0  0  0  0  0  0  0  0  0  0  0  0
   -7.3655    0.0698   -2.3600 O   0  0  0  0  0  0  0  0  0  0  0  0
   -7.5266   -1.6772   -1.0406 O   0  0  0  0  0  0  0  0  0  0  0  0
   -1.5205    1.9642    0.0654 H   0  0  0  0  0  0  0  0  0  0  0  0
    0.8866    2.3661    0.0434 H   0  0  0  0  0  0  0  0  0  0  0  0
    1.8436    0.2347   -1.1915 H   0  0  0  0  0  0  0  0  0  0  0  0
    1.3819   -2.0500    0.0054 H   0  0  0  0  0  0  0  0  0  0  0  0
   -1.0421   -2.2089    0.0135 H   0  0  0  0  0  0  0  0  0  0  0  0
    3.3015   -0.6329    0.6094 H   0  0  0  0  0  0  0  0  0  0  0  0
    1.6493   -0.3493    2.6504 H   0  0  0  0  0  0  0  0  0  0  0  0
    2.8565    1.1678    4.1376 H   0  0  0  0  0  0  0  0  0  0  0  0
    4.9383    2.9675    0.9661 H   0  0  0  0  0  0  0  0  0  0  0  0
    3.8490    1.5705   -0.6996 H   0  0  0  0  0  0  0  0  0  0  0  0
    5.1243    0.8184    4.7850 H   0  0  0  0  0  0  0  0  0  0  0  0
    6.6964    1.7529    6.4024 H   0  0  0  0  0  0  0  0  0  0  0  0
    6.7116    5.4879    4.1975 H   0  0  0  0  0  0  0  0  0  0  0  0
    5.1081    4.5479    2.6045 H   0  0  0  0  0  0  0  0  0  0  0  0
   -2.8108    1.3906   -1.8206 H   0  0  0  0  0  0  0  0  0  0  0  0
   -5.1579    1.1489   -2.4431 H   0  0  0  0  0  0  0  0  0  0  0  0
   -5.4805   -2.2891    0.1805 H   0  0  0  0  0  0  0  0  0  0  0  0
   -3.1380   -2.0109    0.8257 H   0  0  0  0  0  0  0  0  0  0  0  0
  1  2  1  0  0  0  0
  1  6  1  0  0  0  0
  1 22  1  0  0  0  0
  2  3  2  0  0  0  0
  2 31  1  0  0  0  0
  3  4  1  0  0  0  0
  3 32  1  0  0  0  0
  4  5  1  0  0  0  0
  4  7  1  0  0  0  0
  4 33  1  6  0  0  0
  5  6  2  0  0  0  0
  5 34  1  0  0  0  0
  6 35  1  0  0  0  0
  7  8  1  0  0  0  0
  7 12  1  0  0  0  0
  7 36  1  6  0  0  0
  8  9  2  0  0  0  0
  8 37  1  0  0  0  0
  9 10  1  0  0  0  0
  9 38  1  0  0  0  0
 10 11  1  0  0  0  0
 10 13  1  0  0  0  0
 11 12  2  0  0  0  0
 11 39  1  0  0  0  0
 12 40  1  0  0  0  0
 13 14  1  0  0  0  0
 13 18  2  0  0  0  0
 14 15  2  0  0  0  0
 14 41  1  0  0  0  0
 15 16  1  0  0  0  0
 15 42  1  0  0  0  0
 16 17  2  0  0  0  0
 16 19  1  0  0  0  0
 17 18  1  0  0  0  0
 17 43  1  0  0  0  0
 18 44  1  0  0  0  0
 19 20  2  0  0  0  0
 19 21  2  0  0  0  0
 22 23  1  0  0  0  0
 22 27  2  0  0  0  0
 23 24  2  0  0  0  0
 23 45  1  0  0  0  0
 24 25  1  0  0  0  0
 24 46  1  0  0  0  0
 25 26  2  0  0  0  0
 25 28  1  0  0  0  0
 26 27  1  0  0  0  0
 26 47  1  0  0  0  0
 27 48  1  0  0  0  0
 28 29  2  0  0  0  0
 28 30  2  0  0  0  0
M  END
$$$$
