
 OpenBabel03142217213D

 36 37  0  0  1  0  0  0  0  0999 V2000
   -1.4290   -0.1098    0.1066 N   0  0  0  0  0  0  0  0  0  0  0  0
   -0.8379    1.1468    0.1643 C   0  0  0  0  0  0  0  0  0  0  0  0
    0.4848    1.3416    0.0695 C   0  0  0  0  0  0  0  0  0  0  0  0
    1.4212    0.1741   -0.1837 C   0  0  1  0  0  0  0  0  0  0  0  0
    0.7342   -1.1576    0.1000 C   0  0  0  0  0  0  0  0  0  0  0  0
   -0.6055   -1.2274    0.1780 C   0  0  0  0  0  0  0  0  0  0  0  0
    1.9971    0.1792   -1.6427 C   0  0  2  0  0  0  0  0  0  0  0  0
    2.8220    1.4236   -1.9545 C   0  0  0  0  0  0  0  0  0  0  0  0
    2.6715    2.0882   -3.1126 C   0  0  0  0  0  0  0  0  0  0  0  0
    1.7590    1.7234   -4.0978 N   0  0  0  0  0  0  0  0  0  0  0  0
    0.8771    0.6864   -3.8262 C   0  0  0  0  0  0  0  0  0  0  0  0
    0.9376   -0.0612   -2.7163 C   0  0  0  0  0  0  0  0  0  0  0  0
    1.8335    2.2912   -5.4580 C   0  0  0  0  0  0  0  0  0  0  0  0
    0.9568    3.5266   -5.6093 C   0  0  0  0  0  0  0  0  0  0  0  0
    1.0320    4.1342   -7.2859 Cl  0  0  0  0  0  0  0  0  0  0  0  0
   -2.8373   -0.2361   -0.3306 C   0  0  0  0  0  0  0  0  0  0  0  0
   -3.7127   -0.9269    0.7070 C   0  0  0  0  0  0  0  0  0  0  0  0
   -5.3881   -1.0575    0.1094 Cl  0  0  0  0  0  0  0  0  0  0  0  0
   -1.5218    1.9832    0.2751 H   0  0  0  0  0  0  0  0  0  0  0  0
    0.9024    2.3406    0.1142 H   0  0  0  0  0  0  0  0  0  0  0  0
    2.2524    0.2603    0.5302 H   0  0  0  0  0  0  0  0  0  0  0  0
    1.3415   -2.0553    0.1484 H   0  0  0  0  0  0  0  0  0  0  0  0
   -1.1144   -2.1800    0.2772 H   0  0  0  0  0  0  0  0  0  0  0  0
    2.6945   -0.6697   -1.7097 H   0  0  0  0  0  0  0  0  0  0  0  0
    3.5673    1.7426   -1.2344 H   0  0  0  0  0  0  0  0  0  0  0  0
    3.2844    2.9526   -3.3511 H   0  0  0  0  0  0  0  0  0  0  0  0
    0.1299    0.4930   -4.5909 H   0  0  0  0  0  0  0  0  0  0  0  0
    0.2292   -0.8705   -2.5816 H   0  0  0  0  0  0  0  0  0  0  0  0
    1.5312    1.5283   -6.1876 H   0  0  0  0  0  0  0  0  0  0  0  0
    2.8771    2.5363   -5.6975 H   0  0  0  0  0  0  0  0  0  0  0  0
    1.2893    4.3335   -4.9503 H   0  0  0  0  0  0  0  0  0  0  0  0
   -0.0910    3.3055   -5.3853 H   0  0  0  0  0  0  0  0  0  0  0  0
   -2.8581   -0.7885   -1.2781 H   0  0  0  0  0  0  0  0  0  0  0  0
   -3.2530    0.7571   -0.5497 H   0  0  0  0  0  0  0  0  0  0  0  0
   -3.7312   -0.3658    1.6445 H   0  0  0  0  0  0  0  0  0  0  0  0
   -3.3645   -1.9421    0.9172 H   0  0  0  0  0  0  0  0  0  0  0  0
  1  2  1  0  0  0  0
  1  6  1  0  0  0  0
  1 16  1  0  0  0  0
  2  3  2  0  0  0  0
  2 19  1  0  0  0  0
  3  4  1  0  0  0  0
  3 20  1  0  0  0  0
  4  5  1  0  0  0  0
  4  7  1  0  0  0  0
  4 21  1  1  0  0  0
  5  6  2  0  0  0  0
  5 22  1  0  0  0  0
  6 23  1  0  0  0  0
  7  8  1  0  0  0  0
  7 12  1  0  0  0  0
  7 24  1  6  0  0  0
  8  9  2  0  0  0  0
  8 25  1  0  0  0  0
  9 10  1  0  0  0  0
  9 26  1  0  0  0  0
 10 11  1  0  0  0  0
 10 13  1  0  0  0  0
 11 12  2  0  0  0  0
 11 27  1  0  0  0  0
 12 28  1  0  0  0  0
 13 14  1  0  0  0  0
 13 29  1  0  0  0  0
 13 30  1  0  0  0  0
 14 15  1  0  0  0  0
 14 31  1  0  0  0  0
 14 32  1  0  0  0  0
 16 17  1  0  0  0  0
 16 33  1  0  0  0  0
 16 34  1  0  0  0  0
 17 18  1  0  0  0  0
 17 35  1  0  0  0  0
 17 36  1  0  0  0  0
M  END
$$$$
