
 OpenBabel03142217213D

 42 43  0  0  1  0  0  0  0  0999 V2000
   -5.0056    4.3167   -0.9655 N   0  0  0  0  0  0  0  0  0  0  0  0
   -4.0279    4.8435   -0.1199 C   0  0  0  0  0  0  0  0  0  0  0  0
   -2.7237    4.5573   -0.2177 C   0  0  0  0  0  0  0  0  0  0  0  0
   -2.2347    3.5373   -1.2310 C   0  0  1  0  0  0  0  0  0  0  0  0
   -3.3007    3.2244   -2.2608 C   0  0  0  0  0  0  0  0  0  0  0  0
   -4.5896    3.5925   -2.1018 C   0  0  0  0  0  0  0  0  0  0  0  0
   -5.5798    3.2697   -3.1932 C   0  0  0  0  0  0  0  0  0  0  0  0
   -1.6899    2.2735   -0.4877 C   0  0  1  0  0  0  0  0  0  0  0  0
   -2.7310    1.5513    0.3483 C   0  0  0  0  0  0  0  0  0  0  0  0
   -2.7203    0.2219    0.4556 C   0  0  0  0  0  0  0  0  0  0  0  0
   -1.8152   -0.6086   -0.2038 N   0  0  0  0  0  0  0  0  0  0  0  0
   -1.0047   -0.0436   -1.2127 C   0  0  0  0  0  0  0  0  0  0  0  0
   -0.9482    1.2977   -1.3886 C   0  0  0  0  0  0  0  0  0  0  0  0
   -0.2058   -0.9006   -2.1624 C   0  0  0  0  0  0  0  0  0  0  0  0
   -1.6503   -1.9875    0.3128 C   0  0  0  0  0  0  0  0  0  0  0  0
   -0.6219   -2.0177    1.4448 C   0  0  0  0  0  0  0  0  0  0  0  0
   -0.5249   -3.6458    2.1662 Cl  0  0  0  0  0  0  0  0  0  0  0  0
   -6.4285    4.4546   -0.5847 C   0  0  0  0  0  0  0  0  0  0  0  0
   -6.8658    3.2891    0.3046 C   0  0  0  0  0  0  0  0  0  0  0  0
   -8.5456    3.5194    0.8619 Cl  0  0  0  0  0  0  0  0  0  0  0  0
   -4.3960    5.5155    0.6515 H   0  0  0  0  0  0  0  0  0  0  0  0
   -2.0080    4.9965    0.4694 H   0  0  0  0  0  0  0  0  0  0  0  0
   -1.4021    4.0133   -1.7709 H   0  0  0  0  0  0  0  0  0  0  0  0
   -2.9805    2.6854   -3.1473 H   0  0  0  0  0  0  0  0  0  0  0  0
   -5.0862    2.9011   -4.0987 H   0  0  0  0  0  0  0  0  0  0  0  0
   -6.1375    4.1658   -3.4865 H   0  0  0  0  0  0  0  0  0  0  0  0
   -6.2863    2.5001   -2.8604 H   0  0  0  0  0  0  0  0  0  0  0  0
   -0.9354    2.6434    0.2235 H   0  0  0  0  0  0  0  0  0  0  0  0
   -3.4684    2.1303    0.8935 H   0  0  0  0  0  0  0  0  0  0  0  0
   -3.4382   -0.2877    1.0927 H   0  0  0  0  0  0  0  0  0  0  0  0
   -0.3250    1.7223   -2.1704 H   0  0  0  0  0  0  0  0  0  0  0  0
   -0.3600   -1.9715   -2.0354 H   0  0  0  0  0  0  0  0  0  0  0  0
    0.8651   -0.7053   -2.0435 H   0  0  0  0  0  0  0  0  0  0  0  0
   -0.4869   -0.6719   -3.1975 H   0  0  0  0  0  0  0  0  0  0  0  0
   -1.3727   -2.6918   -0.4757 H   0  0  0  0  0  0  0  0  0  0  0  0
   -2.6160   -2.3517    0.6885 H   0  0  0  0  0  0  0  0  0  0  0  0
   -0.8883   -1.3222    2.2473 H   0  0  0  0  0  0  0  0  0  0  0  0
    0.3771   -1.7537    1.0846 H   0  0  0  0  0  0  0  0  0  0  0  0
   -7.0726    4.5132   -1.4680 H   0  0  0  0  0  0  0  0  0  0  0  0
   -6.5752    5.4012   -0.0507 H   0  0  0  0  0  0  0  0  0  0  0  0
   -6.2361    3.2043    1.1960 H   0  0  0  0  0  0  0  0  0  0  0  0
   -6.8247    2.3360   -0.2322 H   0  0  0  0  0  0  0  0  0  0  0  0
  1  2  1  0  0  0  0
  1  6  1  0  0  0  0
  1 18  1  0  0  0  0
  2  3  2  0  0  0  0
  2 21  1  0  0  0  0
  3  4  1  0  0  0  0
  3 22  1  0  0  0  0
  4  5  1  0  0  0  0
  4 23  1  1  0  0  0
  5  6  2  0  0  0  0
  5 24  1  0  0  0  0
  6  7  1  0  0  0  0
  7 25  1  0  0  0  0
  7 26  1  0  0  0  0
  7 27  1  0  0  0  0
  8  9  1  0  0  0  0
  8 13  1  0  0  0  0
  8  4  1  0  0  0  0
  8 28  1  1  0  0  0
  9 10  2  0  0  0  0
  9 29  1  0  0  0  0
 10 11  1  0  0  0  0
 10 30  1  0  0  0  0
 11 12  1  0  0  0  0
 11 15  1  0  0  0  0
 12 13  2  0  0  0  0
 12 14  1  0  0  0  0
 13 31  1  0  0  0  0
 14 32  1  0  0  0  0
 14 33  1  0  0  0  0
 14 34  1  0  0  0  0
 15 16  1  0  0  0  0
 15 35  1  0  0  0  0
 15 36  1  0  0  0  0
 16 17  1  0  0  0  0
 16 37  1  0  0  0  0
 16 38  1  0  0  0  0
 18 19  1  0  0  0  0
 18 39  1  0  0  0  0
 18 40  1  0  0  0  0
 19 20  1  0  0  0  0
 19 41  1  0  0  0  0
 19 42  1  0  0  0  0
M  END
$$$$
