
 OpenBabel03142217213D

 40 41  0  0  1  0  0  0  0  0999 V2000
   -1.4340   -0.1214    0.0819 N   0  0  0  0  0  0  0  0  0  0  0  0
   -0.8216    1.1257    0.1754 C   0  0  0  0  0  0  0  0  0  0  0  0
    0.5114    1.2891    0.1046 C   0  0  0  0  0  0  0  0  0  0  0  0
    1.4220    0.0992   -0.1779 C   0  0  1  0  0  0  0  0  0  0  0  0
    0.7048   -1.2175    0.0565 C   0  0  0  0  0  0  0  0  0  0  0  0
   -0.6346   -1.2580    0.1330 C   0  0  0  0  0  0  0  0  0  0  0  0
    2.0029    0.1972   -1.6280 C   0  0  2  0  0  0  0  0  0  0  0  0
    0.9312    0.1918   -2.7182 C   0  0  0  0  0  0  0  0  0  0  0  0
    1.0303   -0.5916   -3.7988 C   0  0  0  0  0  0  0  0  0  0  0  0
    2.0934   -1.4561   -4.0198 N   0  0  0  0  0  0  0  0  0  0  0  0
    3.0556   -1.5896   -3.0209 C   0  0  0  0  0  0  0  0  0  0  0  0
    3.0680   -0.8577   -1.8978 C   0  0  0  0  0  0  0  0  0  0  0  0
    2.2591   -2.1275   -5.3259 C   0  0  0  0  0  0  0  0  0  0  0  0
    3.0569   -1.2497   -6.3168 C   0  0  0  0  0  0  0  0  0  0  0  0
    4.4269   -0.9478   -5.8747 N   0  0  0  0  0  0  0  0  0  0  0  0
   -2.8609   -0.2331   -0.2690 C   0  0  0  0  0  0  0  0  0  0  0  0
   -3.0258   -0.3408   -1.8022 C   0  0  0  0  0  0  0  0  0  0  0  0
   -4.4230   -0.5086   -2.2188 N   0  0  0  0  0  0  0  0  0  0  0  0
   -1.4954    1.9669    0.2943 H   0  0  0  0  0  0  0  0  0  0  0  0
    0.9506    2.2773    0.1758 H   0  0  0  0  0  0  0  0  0  0  0  0
    2.2466    0.1510    0.5469 H   0  0  0  0  0  0  0  0  0  0  0  0
    1.2869   -2.1339    0.0986 H   0  0  0  0  0  0  0  0  0  0  0  0
   -1.1683   -2.1969    0.2252 H   0  0  0  0  0  0  0  0  0  0  0  0
    2.5097    1.1701   -1.7058 H   0  0  0  0  0  0  0  0  0  0  0  0
    0.0706    0.8428   -2.6049 H   0  0  0  0  0  0  0  0  0  0  0  0
    0.2631   -0.5875   -4.5686 H   0  0  0  0  0  0  0  0  0  0  0  0
    3.8266   -2.3251   -3.2303 H   0  0  0  0  0  0  0  0  0  0  0  0
    3.8603   -0.9932   -1.1694 H   0  0  0  0  0  0  0  0  0  0  0  0
    1.2747   -2.3427   -5.7618 H   0  0  0  0  0  0  0  0  0  0  0  0
    2.7555   -3.0971   -5.1961 H   0  0  0  0  0  0  0  0  0  0  0  0
    2.5282   -0.3049   -6.4806 H   0  0  0  0  0  0  0  0  0  0  0  0
    3.1141   -1.7646   -7.2813 H   0  0  0  0  0  0  0  0  0  0  0  0
    4.3517   -0.4556   -4.9787 H   0  0  0  0  0  0  0  0  0  0  0  0
    4.8468   -0.2811   -6.5203 H   0  0  0  0  0  0  0  0  0  0  0  0
   -3.4177    0.6356    0.1040 H   0  0  0  0  0  0  0  0  0  0  0  0
   -3.2954   -1.1165    0.2159 H   0  0  0  0  0  0  0  0  0  0  0  0
   -2.4431   -1.1865   -2.1871 H   0  0  0  0  0  0  0  0  0  0  0  0
   -2.6261    0.5612   -2.2801 H   0  0  0  0  0  0  0  0  0  0  0  0
   -4.7676   -1.4071   -1.8807 H   0  0  0  0  0  0  0  0  0  0  0  0
   -4.4564   -0.5632   -3.2352 H   0  0  0  0  0  0  0  0  0  0  0  0
  1  2  1  0  0  0  0
  1  6  1  0  0  0  0
  1 16  1  0  0  0  0
  2  3  2  0  0  0  0
  2 19  1  0  0  0  0
  3  4  1  0  0  0  0
  3 20  1  0  0  0  0
  4  5  1  0  0  0  0
  4  7  1  0  0  0  0
  4 21  1  1  0  0  0
  5  6  2  0  0  0  0
  5 22  1  0  0  0  0
  6 23  1  0  0  0  0
  7  8  1  0  0  0  0
  7 12  1  0  0  0  0
  7 24  1  6  0  0  0
  8  9  2  0  0  0  0
  8 25  1  0  0  0  0
  9 10  1  0  0  0  0
  9 26  1  0  0  0  0
 10 11  1  0  0  0  0
 10 13  1  0  0  0  0
 11 12  2  0  0  0  0
 11 27  1  0  0  0  0
 12 28  1  0  0  0  0
 13 14  1  0  0  0  0
 13 29  1  0  0  0  0
 13 30  1  0  0  0  0
 14 15  1  0  0  0  0
 14 31  1  0  0  0  0
 14 32  1  0  0  0  0
 15 33  1  0  0  0  0
 15 34  1  0  0  0  0
 16 17  1  0  0  0  0
 16 35  1  0  0  0  0
 16 36  1  0  0  0  0
 17 18  1  0  0  0  0
 17 37  1  0  0  0  0
 17 38  1  0  0  0  0
 18 39  1  0  0  0  0
 18 40  1  0  0  0  0
M  END
$$$$
