
 OpenBabel03142217213D

 44 45  0  0  1  0  0  0  0  0999 V2000
    0.4859   -1.1277    0.0437 N   0  0  0  0  0  0  0  0  0  0  0  0
   -0.8883   -1.2645   -0.1412 C   0  0  0  0  0  0  0  0  0  0  0  0
   -1.7437   -0.2368   -0.1409 C   0  0  0  0  0  0  0  0  0  0  0  0
   -1.2490    1.1626    0.1567 C   0  0  2  0  0  0  0  0  0  0  0  0
    0.2552    1.2538   -0.0352 C   0  0  0  0  0  0  0  0  0  0  0  0
    1.0470    0.1632   -0.0482 C   0  0  0  0  0  0  0  0  0  0  0  0
    2.5302    0.3450   -0.2311 C   0  0  0  0  0  0  0  0  0  0  0  0
   -1.6569    1.5906    1.6062 C   0  0  2  0  0  0  0  0  0  0  0  0
   -3.1651    1.5684    1.7663 C   0  0  0  0  0  0  0  0  0  0  0  0
   -3.8566    2.7126    1.7640 C   0  0  0  0  0  0  0  0  0  0  0  0
   -3.2634    3.9746    1.6972 N   0  0  0  0  0  0  0  0  0  0  0  0
   -1.8761    4.0694    1.9338 C   0  0  0  0  0  0  0  0  0  0  0  0
   -1.1081    2.9629    1.9422 C   0  0  0  0  0  0  0  0  0  0  0  0
   -1.1971    5.3768    2.2529 C   0  0  0  0  0  0  0  0  0  0  0  0
   -4.1219    5.1261    1.3347 C   0  0  0  0  0  0  0  0  0  0  0  0
   -4.0910    5.3864   -0.1795 C   0  0  0  0  0  0  0  0  0  0  0  0
   -4.5237    4.2563   -0.9367 O   0  0  0  0  0  0  0  0  0  0  0  0
    1.2884   -2.3380    0.3191 C   0  0  0  0  0  0  0  0  0  0  0  0
    1.4094   -2.5991    1.8279 C   0  0  0  0  0  0  0  0  0  0  0  0
    0.1428   -2.7845    2.4589 O   0  0  0  0  0  0  0  0  0  0  0  0
   -1.2378   -2.2820   -0.2903 H   0  0  0  0  0  0  0  0  0  0  0  0
   -2.8019   -0.3971   -0.3144 H   0  0  0  0  0  0  0  0  0  0  0  0
   -1.7071    1.8372   -0.5818 H   0  0  0  0  0  0  0  0  0  0  0  0
    0.6776    2.2490   -0.1410 H   0  0  0  0  0  0  0  0  0  0  0  0
    2.7916    1.3865   -0.4609 H   0  0  0  0  0  0  0  0  0  0  0  0
    2.8942   -0.2584   -1.0682 H   0  0  0  0  0  0  0  0  0  0  0  0
    3.0696    0.0650    0.6787 H   0  0  0  0  0  0  0  0  0  0  0  0
   -1.2422    0.8834    2.3410 H   0  0  0  0  0  0  0  0  0  0  0  0
   -3.6747    0.6131    1.8318 H   0  0  0  0  0  0  0  0  0  0  0  0
   -4.9436    2.7069    1.7992 H   0  0  0  0  0  0  0  0  0  0  0  0
   -0.0476    3.0257    2.1679 H   0  0  0  0  0  0  0  0  0  0  0  0
   -1.8801    6.2147    2.3859 H   0  0  0  0  0  0  0  0  0  0  0  0
   -0.4921    5.6379    1.4566 H   0  0  0  0  0  0  0  0  0  0  0  0
   -0.6335    5.2869    3.1901 H   0  0  0  0  0  0  0  0  0  0  0  0
   -3.8322    6.0317    1.8722 H   0  0  0  0  0  0  0  0  0  0  0  0
   -5.1559    4.9188    1.6377 H   0  0  0  0  0  0  0  0  0  0  0  0
   -3.0869    5.6561   -0.5206 H   0  0  0  0  0  0  0  0  0  0  0  0
   -4.7666    6.2130   -0.4193 H   0  0  0  0  0  0  0  0  0  0  0  0
   -3.8725    3.5532   -0.7494 H   0  0  0  0  0  0  0  0  0  0  0  0
    2.2871   -2.2593   -0.1200 H   0  0  0  0  0  0  0  0  0  0  0  0
    0.8174   -3.2060   -0.1571 H   0  0  0  0  0  0  0  0  0  0  0  0
    1.9242   -1.7796    2.3375 H   0  0  0  0  0  0  0  0  0  0  0  0
    1.9855   -3.5154    1.9882 H   0  0  0  0  0  0  0  0  0  0  0  0
   -0.3035   -1.9177    2.4099 H   0  0  0  0  0  0  0  0  0  0  0  0
  1  2  1  0  0  0  0
  1  6  1  0  0  0  0
  1 18  1  0  0  0  0
  2  3  2  0  0  0  0
  2 21  1  0  0  0  0
  3  4  1  0  0  0  0
  3 22  1  0  0  0  0
  4  5  1  0  0  0  0
  4  8  1  0  0  0  0
  4 23  1  6  0  0  0
  5  6  2  0  0  0  0
  5 24  1  0  0  0  0
  6  7  1  0  0  0  0
  7 25  1  0  0  0  0
  7 26  1  0  0  0  0
  7 27  1  0  0  0  0
  8  9  1  0  0  0  0
  8 13  1  0  0  0  0
  8 28  1  1  0  0  0
  9 10  2  0  0  0  0
  9 29  1  0  0  0  0
 10 11  1  0  0  0  0
 10 30  1  0  0  0  0
 11 12  1  0  0  0  0
 11 15  1  0  0  0  0
 12 13  2  0  0  0  0
 12 14  1  0  0  0  0
 13 31  1  0  0  0  0
 14 32  1  0  0  0  0
 14 33  1  0  0  0  0
 14 34  1  0  0  0  0
 15 16  1  0  0  0  0
 15 35  1  0  0  0  0
 15 36  1  0  0  0  0
 16 17  1  0  0  0  0
 16 37  1  0  0  0  0
 16 38  1  0  0  0  0
 17 39  1  0  0  0  0
 18 19  1  0  0  0  0
 18 40  1  0  0  0  0
 18 41  1  0  0  0  0
 19 20  1  0  0  0  0
 19 42  1  0  0  0  0
 19 43  1  0  0  0  0
 20 44  1  0  0  0  0
M  END
$$$$
