
 OpenBabel03142217213D

 39 40  0  0  1  0  0  0  0  0999 V2000
   -1.4205   -0.0825    0.0918 N   0  0  0  0  0  0  0  0  0  0  0  0
   -0.8175    1.1700    0.1262 C   0  0  0  0  0  0  0  0  0  0  0  0
    0.5059    1.3568    0.0464 C   0  0  0  0  0  0  0  0  0  0  0  0
    1.4297    0.1772   -0.1991 C   0  0  1  0  0  0  0  0  0  0  0  0
    0.7328   -1.1489    0.1026 C   0  0  0  0  0  0  0  0  0  0  0  0
   -0.6061   -1.2060    0.1831 C   0  0  0  0  0  0  0  0  0  0  0  0
    1.9910    0.1723   -1.6666 C   0  0  2  0  0  0  0  0  0  0  0  0
    2.8279    1.4001   -1.9756 C   0  0  0  0  0  0  0  0  0  0  0  0
    2.6553    2.0847   -3.1163 C   0  0  0  0  0  0  0  0  0  0  0  0
    1.7135    1.7630   -4.0948 N   0  0  0  0  0  0  0  0  0  0  0  0
    0.7793    0.7464   -3.8169 C   0  0  0  0  0  0  0  0  0  0  0  0
    0.9029   -0.0232   -2.7162 C   0  0  0  0  0  0  0  0  0  0  0  0
   -0.4125    0.5009   -4.7080 C   0  0  0  0  0  0  0  0  0  0  0  0
    1.8666    2.3359   -5.4461 C   0  0  0  0  0  0  0  0  0  0  0  0
    1.0590    3.6108   -5.6203 C   0  0  0  0  0  0  0  0  0  0  0  0
   -2.8434   -0.2116   -0.2448 C   0  0  0  0  0  0  0  0  0  0  0  0
   -3.0212   -0.3112   -1.7587 C   0  0  0  0  0  0  0  0  0  0  0  0
   -1.5016    2.0101    0.2282 H   0  0  0  0  0  0  0  0  0  0  0  0
    0.9287    2.3525    0.0898 H   0  0  0  0  0  0  0  0  0  0  0  0
    2.2659    0.2660    0.5083 H   0  0  0  0  0  0  0  0  0  0  0  0
    1.3317   -2.0511    0.1656 H   0  0  0  0  0  0  0  0  0  0  0  0
   -1.1319   -2.1481    0.3034 H   0  0  0  0  0  0  0  0  0  0  0  0
    2.6658   -0.6917   -1.7502 H   0  0  0  0  0  0  0  0  0  0  0  0
    3.5947    1.6989   -1.2698 H   0  0  0  0  0  0  0  0  0  0  0  0
    3.2752    2.9451   -3.3508 H   0  0  0  0  0  0  0  0  0  0  0  0
    0.1796   -0.8119   -2.5362 H   0  0  0  0  0  0  0  0  0  0  0  0
   -0.3940    1.0599   -5.6440 H   0  0  0  0  0  0  0  0  0  0  0  0
   -1.3295    0.7989   -4.1869 H   0  0  0  0  0  0  0  0  0  0  0  0
   -0.4934   -0.5605   -4.9657 H   0  0  0  0  0  0  0  0  0  0  0  0
    1.5920    1.6018   -6.2121 H   0  0  0  0  0  0  0  0  0  0  0  0
    2.9253    2.5570   -5.6366 H   0  0  0  0  0  0  0  0  0  0  0  0
   -0.0106    3.4342   -5.4718 H   0  0  0  0  0  0  0  0  0  0  0  0
    1.2002    4.0024   -6.6326 H   0  0  0  0  0  0  0  0  0  0  0  0
    1.3765    4.3786   -4.9099 H   0  0  0  0  0  0  0  0  0  0  0  0
   -3.4077    0.6512    0.1259 H   0  0  0  0  0  0  0  0  0  0  0  0
   -3.2715   -1.0973    0.2348 H   0  0  0  0  0  0  0  0  0  0  0  0
   -2.6652    0.5970   -2.2548 H   0  0  0  0  0  0  0  0  0  0  0  0
   -4.0778   -0.4426   -2.0160 H   0  0  0  0  0  0  0  0  0  0  0  0
   -2.4642   -1.1586   -2.1732 H   0  0  0  0  0  0  0  0  0  0  0  0
  1  2  1  0  0  0  0
  1  6  1  0  0  0  0
  1 16  1  0  0  0  0
  2  3  2  0  0  0  0
  2 18  1  0  0  0  0
  3  4  1  0  0  0  0
  3 19  1  0  0  0  0
  4  5  1  0  0  0  0
  4  7  1  0  0  0  0
  4 20  1  1  0  0  0
  5  6  2  0  0  0  0
  5 21  1  0  0  0  0
  6 22  1  0  0  0  0
  7  8  1  0  0  0  0
  7 12  1  0  0  0  0
  7 23  1  6  0  0  0
  8  9  2  0  0  0  0
  8 24  1  0  0  0  0
  9 10  1  0  0  0  0
  9 25  1  0  0  0  0
 10 11  1  0  0  0  0
 10 14  1  0  0  0  0
 11 12  2  0  0  0  0
 11 13  1  0  0  0  0
 12 26  1  0  0  0  0
 13 27  1  0  0  0  0
 13 28  1  0  0  0  0
 13 29  1  0  0  0  0
 14 15  1  0  0  0  0
 14 30  1  0  0  0  0
 14 31  1  0  0  0  0
 15 32  1  0  0  0  0
 15 33  1  0  0  0  0
 15 34  1  0  0  0  0
 16 17  1  0  0  0  0
 16 35  1  0  0  0  0
 16 36  1  0  0  0  0
 17 37  1  0  0  0  0
 17 38  1  0  0  0  0
 17 39  1  0  0  0  0
M  END
$$$$
