
 OpenBabel03142217213D

 36 37  0  0  1  0  0  0  0  0999 V2000
   -1.3726   -0.0961   -0.1523 N   0  0  0  0  0  0  0  0  0  0  0  0
   -0.7852    1.1598   -0.0452 C   0  0  0  0  0  0  0  0  0  0  0  0
    0.5422    1.3603   -0.0380 C   0  0  0  0  0  0  0  0  0  0  0  0
    1.5103    0.2008   -0.2065 C   0  0  2  0  0  0  0  0  0  0  0  0
    0.7928   -1.1439   -0.1671 C   0  0  0  0  0  0  0  0  0  0  0  0
   -0.5461   -1.2133   -0.1586 C   0  0  0  0  0  0  0  0  0  0  0  0
    2.7456    0.2291    0.7447 C   0  0  2  0  0  0  0  0  0  0  0  0
    2.4153    0.2155    2.2282 C   0  0  0  0  0  0  0  0  0  0  0  0
    3.0698    1.0130    3.0899 C   0  0  0  0  0  0  0  0  0  0  0  0
    4.0405    1.9304    2.7019 N   0  0  0  0  0  0  0  0  0  0  0  0
    4.2851    2.1005    1.3450 C   0  0  0  0  0  0  0  0  0  0  0  0
    3.7063    1.3576    0.3904 C   0  0  0  0  0  0  0  0  0  0  0  0
    4.8716    2.6198    3.7019 C   0  0  0  0  0  0  0  0  0  0  0  0
    6.1421    1.8242    3.9759 C   0  0  0  0  0  0  0  0  0  0  0  0
   -2.8215   -0.2388   -0.3665 C   0  0  0  0  0  0  0  0  0  0  0  0
   -3.1361   -0.2809   -1.8569 C   0  0  0  0  0  0  0  0  0  0  0  0
   -1.4807    1.9907    0.0278 H   0  0  0  0  0  0  0  0  0  0  0  0
    0.9438    2.3643    0.0435 H   0  0  0  0  0  0  0  0  0  0  0  0
    1.9022    0.2843   -1.2325 H   0  0  0  0  0  0  0  0  0  0  0  0
    1.3857   -2.0522   -0.1882 H   0  0  0  0  0  0  0  0  0  0  0  0
   -1.0617   -2.1694   -0.1695 H   0  0  0  0  0  0  0  0  0  0  0  0
    3.3093   -0.6972    0.5547 H   0  0  0  0  0  0  0  0  0  0  0  0
    1.6711   -0.4855    2.5892 H   0  0  0  0  0  0  0  0  0  0  0  0
    2.8700    0.9726    4.1561 H   0  0  0  0  0  0  0  0  0  0  0  0
    4.9994    2.8805    1.0990 H   0  0  0  0  0  0  0  0  0  0  0  0
    3.9507    1.5265   -0.6526 H   0  0  0  0  0  0  0  0  0  0  0  0
    4.3166    2.7597    4.6373 H   0  0  0  0  0  0  0  0  0  0  0  0
    5.1371    3.6229    3.3456 H   0  0  0  0  0  0  0  0  0  0  0  0
    5.9084    0.8499    4.4180 H   0  0  0  0  0  0  0  0  0  0  0  0
    6.7903    2.3670    4.6708 H   0  0  0  0  0  0  0  0  0  0  0  0
    6.7073    1.6445    3.0549 H   0  0  0  0  0  0  0  0  0  0  0  0
   -3.3653    0.5913    0.1001 H   0  0  0  0  0  0  0  0  0  0  0  0
   -3.1862   -1.1561    0.1120 H   0  0  0  0  0  0  0  0  0  0  0  0
   -2.8666    0.6626   -2.3430 H   0  0  0  0  0  0  0  0  0  0  0  0
   -4.2050   -0.4528   -2.0169 H   0  0  0  0  0  0  0  0  0  0  0  0
   -2.5847   -1.0833   -2.3593 H   0  0  0  0  0  0  0  0  0  0  0  0
  1  2  1  0  0  0  0
  1  6  1  0  0  0  0
  1 15  1  0  0  0  0
  2  3  2  0  0  0  0
  2 17  1  0  0  0  0
  3  4  1  0  0  0  0
  3 18  1  0  0  0  0
  4  5  1  0  0  0  0
  4  7  1  0  0  0  0
  4 19  1  6  0  0  0
  5  6  2  0  0  0  0
  5 20  1  0  0  0  0
  6 21  1  0  0  0  0
  7  8  1  0  0  0  0
  7 12  1  0  0  0  0
  7 22  1  6  0  0  0
  8  9  2  0  0  0  0
  8 23  1  0  0  0  0
  9 10  1  0  0  0  0
  9 24  1  0  0  0  0
 10 11  1  0  0  0  0
 10 13  1  0  0  0  0
 11 12  2  0  0  0  0
 11 25  1  0  0  0  0
 12 26  1  0  0  0  0
 13 14  1  0  0  0  0
 13 27  1  0  0  0  0
 13 28  1  0  0  0  0
 14 29  1  0  0  0  0
 14 30  1  0  0  0  0
 14 31  1  0  0  0  0
 15 16  1  0  0  0  0
 15 32  1  0  0  0  0
 15 33  1  0  0  0  0
 16 34  1  0  0  0  0
 16 35  1  0  0  0  0
 16 36  1  0  0  0  0
M  END
$$$$
