
 OpenBabel03142217213D

 35 36  0  0  1  0  0  0  0  0999 V2000
    5.1125   -3.0615    1.7915 N   0  0  0  0  0  0  0  0  0  0  0  0
    3.8137   -3.2571    1.3218 C   0  0  0  0  0  0  0  0  0  0  0  0
    3.1021   -2.2939    0.7151 C   0  0  0  0  0  0  0  0  0  0  0  0
    3.7328   -0.9360    0.4158 C   0  0  1  0  0  0  0  0  0  0  0  0
    4.9941   -0.7235    1.2335 C   0  0  0  0  0  0  0  0  0  0  0  0
    5.6095   -1.7594    1.8162 C   0  0  0  0  0  0  0  0  0  0  0  0
    3.9951   -0.7938   -1.1250 C   0  0  1  0  0  0  0  0  0  0  0  0
    4.9438   -1.8573   -1.6761 C   0  0  0  0  0  0  0  0  0  0  0  0
    5.9674   -1.5397   -2.4800 C   0  0  0  0  0  0  0  0  0  0  0  0
    6.2502   -0.2426   -2.8773 N   0  0  0  0  0  0  0  0  0  0  0  0
    5.4903    0.7941   -2.3477 C   0  0  0  0  0  0  0  0  0  0  0  0
    4.4459    0.6078   -1.5249 C   0  0  0  0  0  0  0  0  0  0  0  0
    7.2526    0.0220   -3.9095 C   0  0  0  0  0  0  0  0  0  0  0  0
    6.0530   -4.1968    1.8642 C   0  0  0  0  0  0  0  0  0  0  0  0
    5.6603   -5.2155    2.9129 C   0  0  0  0  0  0  0  0  0  0  0  0
    5.4686   -6.4020    2.6254 O   0  0  0  0  0  0  0  0  0  0  0  0
    5.5665   -4.7495    4.3392 C   0  0  0  0  0  0  0  0  0  0  0  0
    3.4156   -4.2611    1.4480 H   0  0  0  0  0  0  0  0  0  0  0  0
    2.1005   -2.4934    0.3490 H   0  0  0  0  0  0  0  0  0  0  0  0
    3.0078   -0.1710    0.7288 H   0  0  0  0  0  0  0  0  0  0  0  0
    5.4240    0.2706    1.2767 H   0  0  0  0  0  0  0  0  0  0  0  0
    6.5506   -1.6329    2.3420 H   0  0  0  0  0  0  0  0  0  0  0  0
    3.0317   -0.9550   -1.6291 H   0  0  0  0  0  0  0  0  0  0  0  0
    4.7755   -2.8953   -1.4123 H   0  0  0  0  0  0  0  0  0  0  0  0
    6.6320   -2.3059   -2.8682 H   0  0  0  0  0  0  0  0  0  0  0  0
    5.7983    1.7885   -2.6586 H   0  0  0  0  0  0  0  0  0  0  0  0
    3.8836    1.4572   -1.1552 H   0  0  0  0  0  0  0  0  0  0  0  0
    7.7457   -0.8962   -4.2496 H   0  0  0  0  0  0  0  0  0  0  0  0
    8.0257    0.6989   -3.5324 H   0  0  0  0  0  0  0  0  0  0  0  0
    6.7770    0.4815   -4.7833 H   0  0  0  0  0  0  0  0  0  0  0  0
    7.0725   -3.8624    2.0900 H   0  0  0  0  0  0  0  0  0  0  0  0
    6.0924   -4.6930    0.8852 H   0  0  0  0  0  0  0  0  0  0  0  0
    5.9581   -3.7349    4.4438 H   0  0  0  0  0  0  0  0  0  0  0  0
    6.1664   -5.4124    4.9689 H   0  0  0  0  0  0  0  0  0  0  0  0
    4.5214   -4.7702    4.6544 H   0  0  0  0  0  0  0  0  0  0  0  0
  1  2  1  0  0  0  0
  1  6  1  0  0  0  0
  1 14  1  0  0  0  0
  2  3  2  0  0  0  0
  2 18  1  0  0  0  0
  3  4  1  0  0  0  0
  3 19  1  0  0  0  0
  4  5  1  0  0  0  0
  4  7  1  0  0  0  0
  4 20  1  1  0  0  0
  5  6  2  0  0  0  0
  5 21  1  0  0  0  0
  6 22  1  0  0  0  0
  7  8  1  0  0  0  0
  7 12  1  0  0  0  0
  7 23  1  1  0  0  0
  8  9  2  0  0  0  0
  8 24  1  0  0  0  0
  9 10  1  0  0  0  0
  9 25  1  0  0  0  0
 10 11  1  0  0  0  0
 10 13  1  0  0  0  0
 11 12  2  0  0  0  0
 11 26  1  0  0  0  0
 12 27  1  0  0  0  0
 13 28  1  0  0  0  0
 13 29  1  0  0  0  0
 13 30  1  0  0  0  0
 14 15  1  0  0  0  0
 14 31  1  0  0  0  0
 14 32  1  0  0  0  0
 15 16  2  0  0  0  0
 15 17  1  0  0  0  0
 17 33  1  0  0  0  0
 17 34  1  0  0  0  0
 17 35  1  0  0  0  0
M  END
$$$$
