
 OpenBabel03142217213D

 27 28  0  0  0  0  0  0  0  0999 V2000
   -2.7341   -0.5587    0.0467 C   0  0  0  0  0  0  0  0  0  0  0  0
   -2.6511    0.8334    0.0056 C   0  0  0  0  0  0  0  0  0  0  0  0
   -1.4029    1.4610   -0.0193 C   0  0  0  0  0  0  0  0  0  0  0  0
   -0.2316    0.6929    0.0018 C   0  0  0  0  0  0  0  0  0  0  0  0
   -0.3198   -0.6980    0.0230 C   0  0  0  0  0  0  0  0  0  0  0  0
   -1.5704   -1.3267    0.0472 C   0  0  0  0  0  0  0  0  0  0  0  0
    0.9002   -1.5197    0.0236 C   0  0  0  0  0  0  0  0  0  0  0  0
    0.8624   -2.7411   -0.0524 O   0  0  0  0  0  0  0  0  0  0  0  0
    2.1916   -0.8242    0.1403 C   0  0  0  0  0  0  0  0  0  0  0  0
    2.3000    0.5120    0.1487 C   0  0  0  0  0  0  0  0  0  0  0  0
    1.0867    1.3629    0.0144 C   0  0  0  0  0  0  0  0  0  0  0  0
    1.1727    2.5799   -0.0821 O   0  0  0  0  0  0  0  0  0  0  0  0
    3.5989    1.2440    0.3486 C   0  0  0  0  0  0  0  0  0  0  0  0
    4.5258    0.4570    1.1202 O   0  0  0  0  0  0  0  0  0  0  0  0
    4.3251    0.4999    2.4681 C   0  0  0  0  0  0  0  0  0  0  0  0
    3.4474    1.1376    3.0333 O   0  0  0  0  0  0  0  0  0  0  0  0
    5.3070   -0.3762    3.1807 C   0  0  0  0  0  0  0  0  0  0  0  0
   -3.7055   -1.0473    0.0787 H   0  0  0  0  0  0  0  0  0  0  0  0
   -3.5599    1.4309   -0.0005 H   0  0  0  0  0  0  0  0  0  0  0  0
   -1.3490    2.5482   -0.0471 H   0  0  0  0  0  0  0  0  0  0  0  0
   -1.6387   -2.4127    0.0751 H   0  0  0  0  0  0  0  0  0  0  0  0
    3.0556   -1.4739    0.2322 H   0  0  0  0  0  0  0  0  0  0  0  0
    3.4708    2.2231    0.8241 H   0  0  0  0  0  0  0  0  0  0  0  0
    4.0641    1.4243   -0.6270 H   0  0  0  0  0  0  0  0  0  0  0  0
    5.9701   -0.8796    2.4714 H   0  0  0  0  0  0  0  0  0  0  0  0
    4.7629   -1.1403    3.7429 H   0  0  0  0  0  0  0  0  0  0  0  0
    5.9136    0.2352    3.8526 H   0  0  0  0  0  0  0  0  0  0  0  0
  1  2  1  0  0  0  0
  1  6  2  0  0  0  0
  1 18  1  0  0  0  0
  2  3  2  0  0  0  0
  2 19  1  0  0  0  0
  3  4  1  0  0  0  0
  3 20  1  0  0  0  0
  4  5  2  0  0  0  0
  4 11  1  0  0  0  0
  5  6  1  0  0  0  0
  5  7  1  0  0  0  0
  6 21  1  0  0  0  0
  7  8  2  0  0  0  0
  7  9  1  0  0  0  0
  9 10  2  0  0  0  0
  9 22  1  0  0  0  0
 10 11  1  0  0  0  0
 10 13  1  0  0  0  0
 11 12  2  0  0  0  0
 13 14  1  0  0  0  0
 13 23  1  0  0  0  0
 13 24  1  0  0  0  0
 14 15  1  0  0  0  0
 15 16  2  0  0  0  0
 15 17  1  0  0  0  0
 17 25  1  0  0  0  0
 17 26  1  0  0  0  0
 17 27  1  0  0  0  0
M  END
$$$$
