
 OpenBabel03142217213D

 50 53  0  0  1  0  0  0  0  0999 V2000
    5.3669   -3.0961    1.8320 N   0  0  0  0  0  0  0  0  0  0  0  0
    4.2047   -3.4025    1.1266 C   0  0  0  0  0  0  0  0  0  0  0  0
    3.6575   -2.5962    0.2029 C   0  0  0  0  0  0  0  0  0  0  0  0
    4.2869   -1.2540   -0.1213 C   0  0  1  0  0  0  0  0  0  0  0  0
    5.6951   -1.1626    0.4501 C   0  0  0  0  0  0  0  0  0  0  0  0
    6.1185   -1.9856    1.4237 C   0  0  0  0  0  0  0  0  0  0  0  0
    7.3382   -1.5734    2.1454 C   0  0  0  0  0  0  0  0  0  0  0  0
    7.2095   -0.7482    3.2739 C   0  0  0  0  0  0  0  0  0  0  0  0
    8.3346   -0.2475    3.9285 C   0  0  0  0  0  0  0  0  0  0  0  0
    9.6045   -0.5759    3.4629 C   0  0  0  0  0  0  0  0  0  0  0  0
    9.7457   -1.4040    2.3471 C   0  0  0  0  0  0  0  0  0  0  0  0
    8.6164   -1.8988    1.6857 C   0  0  0  0  0  0  0  0  0  0  0  0
    3.4092   -0.0330    0.3686 C   0  0  1  0  0  0  0  0  0  0  0  0
    3.1514   -0.0603    1.8688 C   0  0  0  0  0  0  0  0  0  0  0  0
    3.7764    0.7963    2.6889 C   0  0  0  0  0  0  0  0  0  0  0  0
    4.6583    1.7770    2.2462 N   0  0  0  0  0  0  0  0  0  0  0  0
    4.7392    2.0269    0.8656 C   0  0  0  0  0  0  0  0  0  0  0  0
    4.0975    1.2639   -0.0448 C   0  0  0  0  0  0  0  0  0  0  0  0
    5.6792    3.0399    0.3537 C   0  0  0  0  0  0  0  0  0  0  0  0
    5.2743    4.3492    0.0871 C   0  0  0  0  0  0  0  0  0  0  0  0
    6.1965    5.2761   -0.4067 C   0  0  0  0  0  0  0  0  0  0  0  0
    7.5216    4.8997   -0.6378 C   0  0  0  0  0  0  0  0  0  0  0  0
    7.9318    3.5955   -0.3775 C   0  0  0  0  0  0  0  0  0  0  0  0
    7.0145    2.6711    0.1176 C   0  0  0  0  0  0  0  0  0  0  0  0
    5.4905    2.5026    3.2124 C   0  0  0  0  0  0  0  0  0  0  0  0
    5.7621   -3.8942    2.9932 C   0  0  0  0  0  0  0  0  0  0  0  0
    3.7528   -4.3570    1.3768 H   0  0  0  0  0  0  0  0  0  0  0  0
    2.7522   -2.8845   -0.3183 H   0  0  0  0  0  0  0  0  0  0  0  0
    4.3794   -1.1992   -1.2151 H   0  0  0  0  0  0  0  0  0  0  0  0
    6.2942   -0.3119    0.1485 H   0  0  0  0  0  0  0  0  0  0  0  0
    6.2180   -0.4777    3.6282 H   0  0  0  0  0  0  0  0  0  0  0  0
    8.2163    0.4047    4.7895 H   0  0  0  0  0  0  0  0  0  0  0  0
   10.4844   -0.1799    3.9635 H   0  0  0  0  0  0  0  0  0  0  0  0
   10.7388   -1.6551    1.9838 H   0  0  0  0  0  0  0  0  0  0  0  0
    8.7354   -2.5235    0.8046 H   0  0  0  0  0  0  0  0  0  0  0  0
    2.4306   -0.0676   -0.1288 H   0  0  0  0  0  0  0  0  0  0  0  0
    2.5027   -0.8299    2.2724 H   0  0  0  0  0  0  0  0  0  0  0  0
    3.6482    0.7350    3.7654 H   0  0  0  0  0  0  0  0  0  0  0  0
    4.1886    1.4595   -1.1084 H   0  0  0  0  0  0  0  0  0  0  0  0
    4.2448    4.6481    0.2647 H   0  0  0  0  0  0  0  0  0  0  0  0
    5.8808    6.2954   -0.6103 H   0  0  0  0  0  0  0  0  0  0  0  0
    8.2349    5.6239   -1.0220 H   0  0  0  0  0  0  0  0  0  0  0  0
    8.9611    3.2954   -0.5542 H   0  0  0  0  0  0  0  0  0  0  0  0
    7.3487    1.6596    0.3360 H   0  0  0  0  0  0  0  0  0  0  0  0
    5.4279    2.0610    4.2141 H   0  0  0  0  0  0  0  0  0  0  0  0
    5.1762    3.5479    3.2849 H   0  0  0  0  0  0  0  0  0  0  0  0
    6.5482    2.4640    2.9290 H   0  0  0  0  0  0  0  0  0  0  0  0
    5.0811   -4.7355    3.1603 H   0  0  0  0  0  0  0  0  0  0  0  0
    5.7407   -3.2799    3.9005 H   0  0  0  0  0  0  0  0  0  0  0  0
    6.7688   -4.3042    2.8622 H   0  0  0  0  0  0  0  0  0  0  0  0
  1  2  1  0  0  0  0
  1  6  1  0  0  0  0
  1 26  1  0  0  0  0
  2  3  2  0  0  0  0
  2 27  1  0  0  0  0
  3  4  1  0  0  0  0
  3 28  1  0  0  0  0
  4  5  1  0  0  0  0
  4 29  1  1  0  0  0
  5  6  2  0  0  0  0
  5 30  1  0  0  0  0
  6  7  1  0  0  0  0
  7  8  1  0  0  0  0
  7 12  2  0  0  0  0
  8  9  2  0  0  0  0
  8 31  1  0  0  0  0
  9 10  1  0  0  0  0
  9 32  1  0  0  0  0
 10 11  2  0  0  0  0
 10 33  1  0  0  0  0
 11 12  1  0  0  0  0
 11 34  1  0  0  0  0
 12 35  1  0  0  0  0
 13 14  1  0  0  0  0
 13 18  1  0  0  0  0
 13  4  1  0  0  0  0
 13 36  1  6  0  0  0
 14 15  2  0  0  0  0
 14 37  1  0  0  0  0
 15 16  1  0  0  0  0
 15 38  1  0  0  0  0
 16 17  1  0  0  0  0
 16 25  1  0  0  0  0
 17 18  2  0  0  0  0
 17 19  1  0  0  0  0
 18 39  1  0  0  0  0
 19 20  1  0  0  0  0
 19 24  2  0  0  0  0
 20 21  2  0  0  0  0
 20 40  1  0  0  0  0
 21 22  1  0  0  0  0
 21 41  1  0  0  0  0
 22 23  2  0  0  0  0
 22 42  1  0  0  0  0
 23 24  1  0  0  0  0
 23 43  1  0  0  0  0
 24 44  1  0  0  0  0
 25 45  1  0  0  0  0
 25 46  1  0  0  0  0
 25 47  1  0  0  0  0
 26 48  1  0  0  0  0
 26 49  1  0  0  0  0
 26 50  1  0  0  0  0
M  END
$$$$
