
 OpenBabel03142217213D

 44 47  0  0  1  0  0  0  0  0999 V2000
    6.3648   -1.1044   -0.8329 N   0  0  0  0  0  0  0  0  0  0  0  0
    6.2074   -1.0017    0.5452 C   0  0  0  0  0  0  0  0  0  0  0  0
    5.0190   -0.8943    1.1558 C   0  0  0  0  0  0  0  0  0  0  0  0
    3.7144   -0.8630    0.3657 C   0  0  2  0  0  0  0  0  0  0  0  0
    3.9788   -0.8741   -1.1361 C   0  0  0  0  0  0  0  0  0  0  0  0
    5.2254   -0.9905   -1.6282 C   0  0  0  0  0  0  0  0  0  0  0  0
    2.7621    0.3080    0.7902 C   0  0  1  0  0  0  0  0  0  0  0  0
    2.3620    0.1538    2.2539 C   0  0  0  0  0  0  0  0  0  0  0  0
    2.8877    0.9704    3.1840 C   0  0  0  0  0  0  0  0  0  0  0  0
    3.7419    2.0285    2.8835 N   0  0  0  0  0  0  0  0  0  0  0  0
    3.8598    2.4079    1.5452 C   0  0  0  0  0  0  0  0  0  0  0  0
    3.3885    1.6688    0.5289 C   0  0  0  0  0  0  0  0  0  0  0  0
    4.6693    2.5160    3.8595 C   0  0  0  0  0  0  0  0  0  0  0  0
    5.2784    1.6296    4.7719 C   0  0  0  0  0  0  0  0  0  0  0  0
    6.2238    2.0758    5.6988 C   0  0  0  0  0  0  0  0  0  0  0  0
    6.5753    3.4209    5.7356 C   0  0  0  0  0  0  0  0  0  0  0  0
    5.9893    4.3156    4.8428 C   0  0  0  0  0  0  0  0  0  0  0  0
    5.0481    3.8657    3.9113 C   0  0  0  0  0  0  0  0  0  0  0  0
    7.6203   -1.5103   -1.3873 C   0  0  0  0  0  0  0  0  0  0  0  0
    8.3905   -2.5078   -0.7557 C   0  0  0  0  0  0  0  0  0  0  0  0
    9.6072   -2.9365   -1.2901 C   0  0  0  0  0  0  0  0  0  0  0  0
   10.0817   -2.3708   -2.4685 C   0  0  0  0  0  0  0  0  0  0  0  0
    9.3395   -1.3800   -3.1099 C   0  0  0  0  0  0  0  0  0  0  0  0
    8.1185   -0.9566   -2.5759 C   0  0  0  0  0  0  0  0  0  0  0  0
    7.1287   -0.9907    1.1209 H   0  0  0  0  0  0  0  0  0  0  0  0
    4.9843   -0.8173    2.2368 H   0  0  0  0  0  0  0  0  0  0  0  0
    3.1949   -1.8056    0.5935 H   0  0  0  0  0  0  0  0  0  0  0  0
    3.1298   -0.8235   -1.8086 H   0  0  0  0  0  0  0  0  0  0  0  0
    5.3936   -1.0477   -2.6984 H   0  0  0  0  0  0  0  0  0  0  0  0
    1.8365    0.2530    0.2017 H   0  0  0  0  0  0  0  0  0  0  0  0
    1.7065   -0.6611    2.5359 H   0  0  0  0  0  0  0  0  0  0  0  0
    2.6638    0.8432    4.2385 H   0  0  0  0  0  0  0  0  0  0  0  0
    4.4001    3.3262    1.3505 H   0  0  0  0  0  0  0  0  0  0  0  0
    3.5203    1.9918   -0.4973 H   0  0  0  0  0  0  0  0  0  0  0  0
    5.0520    0.5673    4.7375 H   0  0  0  0  0  0  0  0  0  0  0  0
    6.6905    1.3687    6.3791 H   0  0  0  0  0  0  0  0  0  0  0  0
    7.3110    3.7707    6.4543 H   0  0  0  0  0  0  0  0  0  0  0  0
    6.2643    5.3661    4.8680 H   0  0  0  0  0  0  0  0  0  0  0  0
    4.5982    4.5870    3.2347 H   0  0  0  0  0  0  0  0  0  0  0  0
    8.0239   -2.9861    0.1491 H   0  0  0  0  0  0  0  0  0  0  0  0
   10.1721   -3.7167   -0.7880 H   0  0  0  0  0  0  0  0  0  0  0  0
   11.0291   -2.7020   -2.8871 H   0  0  0  0  0  0  0  0  0  0  0  0
    9.7152   -0.9333   -4.0281 H   0  0  0  0  0  0  0  0  0  0  0  0
    7.5696   -0.1672   -3.0833 H   0  0  0  0  0  0  0  0  0  0  0  0
  1  2  1  0  0  0  0
  1  6  1  0  0  0  0
  1 19  1  0  0  0  0
  2  3  2  0  0  0  0
  2 25  1  0  0  0  0
  3  4  1  0  0  0  0
  3 26  1  0  0  0  0
  4  5  1  0  0  0  0
  4 27  1  1  0  0  0
  5  6  2  0  0  0  0
  5 28  1  0  0  0  0
  6 29  1  0  0  0  0
  7  8  1  0  0  0  0
  7 12  1  0  0  0  0
  7  4  1  0  0  0  0
  7 30  1  6  0  0  0
  8  9  2  0  0  0  0
  8 31  1  0  0  0  0
  9 10  1  0  0  0  0
  9 32  1  0  0  0  0
 10 11  1  0  0  0  0
 10 13  1  0  0  0  0
 11 12  2  0  0  0  0
 11 33  1  0  0  0  0
 12 34  1  0  0  0  0
 13 14  1  0  0  0  0
 13 18  2  0  0  0  0
 14 15  2  0  0  0  0
 14 35  1  0  0  0  0
 15 16  1  0  0  0  0
 15 36  1  0  0  0  0
 16 17  2  0  0  0  0
 16 37  1  0  0  0  0
 17 18  1  0  0  0  0
 17 38  1  0  0  0  0
 18 39  1  0  0  0  0
 19 20  1  0  0  0  0
 19 24  2  0  0  0  0
 20 21  2  0  0  0  0
 20 40  1  0  0  0  0
 21 22  1  0  0  0  0
 21 41  1  0  0  0  0
 22 23  2  0  0  0  0
 22 42  1  0  0  0  0
 23 24  1  0  0  0  0
 23 43  1  0  0  0  0
 24 44  1  0  0  0  0
M  END
$$$$
