
 OpenBabel03142217213D

 18 19  0  0  0  0  0  0  0  0999 V2000
   -2.6912    0.7998    0.0003 C   0  0  0  0  0  0  0  0  0  0  0  0
   -1.4579    1.4536   -0.0181 C   0  0  0  0  0  0  0  0  0  0  0  0
   -0.2722    0.7090    0.0059 C   0  0  0  0  0  0  0  0  0  0  0  0
   -0.3240   -0.6851    0.0337 C   0  0  0  0  0  0  0  0  0  0  0  0
   -1.5625   -1.3386    0.0468 C   0  0  0  0  0  0  0  0  0  0  0  0
   -2.7435   -0.5940    0.0355 C   0  0  0  0  0  0  0  0  0  0  0  0
    0.9211   -1.4786    0.0576 C   0  0  0  0  0  0  0  0  0  0  0  0
    0.9092   -2.7016    0.0207 O   0  0  0  0  0  0  0  0  0  0  0  0
    2.2005   -0.7480    0.1366 C   0  0  0  0  0  0  0  0  0  0  0  0
    2.2500    0.5859    0.1179 C   0  0  0  0  0  0  0  0  0  0  0  0
    1.0280    1.4082    0.0142 C   0  0  0  0  0  0  0  0  0  0  0  0
    1.1093    2.6276   -0.0509 O   0  0  0  0  0  0  0  0  0  0  0  0
   -3.6123    1.3787   -0.0096 H   0  0  0  0  0  0  0  0  0  0  0  0
   -1.4242    2.5415   -0.0442 H   0  0  0  0  0  0  0  0  0  0  0  0
   -1.6106   -2.4259    0.0729 H   0  0  0  0  0  0  0  0  0  0  0  0
   -3.7052   -1.1020    0.0561 H   0  0  0  0  0  0  0  0  0  0  0  0
    3.0957   -1.3544    0.2063 H   0  0  0  0  0  0  0  0  0  0  0  0
    3.1885    1.1254    0.1736 H   0  0  0  0  0  0  0  0  0  0  0  0
  1  2  1  0  0  0  0
  1  6  2  0  0  0  0
  1 13  1  0  0  0  0
  2  3  2  0  0  0  0
  2 14  1  0  0  0  0
  3  4  1  0  0  0  0
  3 11  1  0  0  0  0
  4  5  2  0  0  0  0
  4  7  1  0  0  0  0
  5  6  1  0  0  0  0
  5 15  1  0  0  0  0
  6 16  1  0  0  0  0
  7  8  2  0  0  0  0
  7  9  1  0  0  0  0
  9 10  2  0  0  0  0
  9 17  1  0  0  0  0
 10 11  1  0  0  0  0
 10 18  1  0  0  0  0
 11 12  2  0  0  0  0
M  END
$$$$
