
 OpenBabel03142217213D

 21 22  0  0  0  0  0  0  0  0999 V2000
   -2.7392   -0.6058    0.0295 C   0  0  0  0  0  0  0  0  0  0  0  0
   -2.7047    0.7955   -0.0264 C   0  0  0  0  0  0  0  0  0  0  0  0
   -1.4604    1.4453   -0.0251 C   0  0  0  0  0  0  0  0  0  0  0  0
   -0.2714    0.7041    0.0124 C   0  0  0  0  0  0  0  0  0  0  0  0
   -0.3175   -0.6884    0.0490 C   0  0  0  0  0  0  0  0  0  0  0  0
   -1.5534   -1.3453    0.0603 C   0  0  0  0  0  0  0  0  0  0  0  0
    0.9298   -1.4771    0.0807 C   0  0  0  0  0  0  0  0  0  0  0  0
    0.9232   -2.7010    0.0616 O   0  0  0  0  0  0  0  0  0  0  0  0
    2.2076   -0.7406    0.1373 C   0  0  0  0  0  0  0  0  0  0  0  0
    2.2515    0.5933    0.1100 C   0  0  0  0  0  0  0  0  0  0  0  0
    1.0251    1.4102    0.0166 C   0  0  0  0  0  0  0  0  0  0  0  0
    1.0986    2.6292   -0.0542 O   0  0  0  0  0  0  0  0  0  0  0  0
   -3.9794    1.5951   -0.0513 C   0  0  0  0  0  0  0  0  0  0  0  0
   -4.4904    1.9927    1.5999 Cl  0  0  0  0  0  0  0  0  0  0  0  0
   -3.6922   -1.1329    0.0544 H   0  0  0  0  0  0  0  0  0  0  0  0
   -1.4144    2.5343   -0.0460 H   0  0  0  0  0  0  0  0  0  0  0  0
   -1.5978   -2.4328    0.0996 H   0  0  0  0  0  0  0  0  0  0  0  0
    3.1071   -1.3423    0.1987 H   0  0  0  0  0  0  0  0  0  0  0  0
    3.1881    1.1377    0.1477 H   0  0  0  0  0  0  0  0  0  0  0  0
   -4.7846    1.0349   -0.5374 H   0  0  0  0  0  0  0  0  0  0  0  0
   -3.8442    2.5287   -0.6072 H   0  0  0  0  0  0  0  0  0  0  0  0
  1  2  1  0  0  0  0
  1  6  2  0  0  0  0
  1 15  1  0  0  0  0
  2  3  2  0  0  0  0
  2 13  1  0  0  0  0
  3  4  1  0  0  0  0
  3 16  1  0  0  0  0
  4  5  2  0  0  0  0
  4 11  1  0  0  0  0
  5  6  1  0  0  0  0
  5  7  1  0  0  0  0
  6 17  1  0  0  0  0
  7  8  2  0  0  0  0
  7  9  1  0  0  0  0
  9 10  2  0  0  0  0
  9 18  1  0  0  0  0
 10 11  1  0  0  0  0
 10 19  1  0  0  0  0
 11 12  2  0  0  0  0
 13 14  1  0  0  0  0
 13 20  1  0  0  0  0
 13 21  1  0  0  0  0
M  END
$$$$
