
 OpenBabel03142217213D

 21 22  0  0  0  0  0  0  0  0999 V2000
    2.6659    1.4570    0.0066 C   0  0  0  0  0  0  0  0  0  0  0  0
    3.0839    0.1266    0.0105 C   0  0  0  0  0  0  0  0  0  0  0  0
    2.1402   -0.9019    0.0121 C   0  0  0  0  0  0  0  0  0  0  0  0
    0.7726   -0.5971    0.0120 C   0  0  0  0  0  0  0  0  0  0  0  0
    0.3530    0.7314    0.0014 C   0  0  0  0  0  0  0  0  0  0  0  0
    1.3033    1.7613   -0.0005 C   0  0  0  0  0  0  0  0  0  0  0  0
   -1.0857    1.0690   -0.0085 C   0  0  0  0  0  0  0  0  0  0  0  0
   -1.4476    2.2393   -0.0344 O   0  0  0  0  0  0  0  0  0  0  0  0
   -2.0678   -0.0483    0.0150 C   0  0  0  0  0  0  0  0  0  0  0  0
   -1.6448   -1.3195    0.0365 C   0  0  0  0  0  0  0  0  0  0  0  0
   -0.2163   -1.6886    0.0275 C   0  0  0  0  0  0  0  0  0  0  0  0
    0.1170   -2.8658    0.0342 O   0  0  0  0  0  0  0  0  0  0  0  0
   -3.5270    0.2919    0.0082 C   0  0  0  0  0  0  0  0  0  0  0  0
    3.4008    2.2592    0.0086 H   0  0  0  0  0  0  0  0  0  0  0  0
    4.1458   -0.1104    0.0137 H   0  0  0  0  0  0  0  0  0  0  0  0
    2.4730   -1.9386    0.0155 H   0  0  0  0  0  0  0  0  0  0  0  0
    0.9857    2.8029   -0.0061 H   0  0  0  0  0  0  0  0  0  0  0  0
   -2.3385   -2.1539    0.0575 H   0  0  0  0  0  0  0  0  0  0  0  0
   -3.7115    1.3689   -0.0434 H   0  0  0  0  0  0  0  0  0  0  0  0
   -4.0101   -0.0788    0.9184 H   0  0  0  0  0  0  0  0  0  0  0  0
   -4.0200   -0.1619   -0.8584 H   0  0  0  0  0  0  0  0  0  0  0  0
  1  2  1  0  0  0  0
  1  6  2  0  0  0  0
  1 14  1  0  0  0  0
  2  3  2  0  0  0  0
  2 15  1  0  0  0  0
  3  4  1  0  0  0  0
  3 16  1  0  0  0  0
  4  5  2  0  0  0  0
  4 11  1  0  0  0  0
  5  6  1  0  0  0  0
  5  7  1  0  0  0  0
  6 17  1  0  0  0  0
  7  8  2  0  0  0  0
  7  9  1  0  0  0  0
  9 10  2  0  0  0  0
  9 13  1  0  0  0  0
 10 11  1  0  0  0  0
 10 18  1  0  0  0  0
 11 12  2  0  0  0  0
 13 19  1  0  0  0  0
 13 20  1  0  0  0  0
 13 21  1  0  0  0  0
M  END
$$$$
