
 OpenBabel03142217213D

 21 22  0  0  0  0  0  0  0  0999 V2000
   -2.7395   -0.6073    0.0443 C   0  0  0  0  0  0  0  0  0  0  0  0
   -2.7072    0.7936   -0.0155 C   0  0  0  0  0  0  0  0  0  0  0  0
   -1.4636    1.4439   -0.0194 C   0  0  0  0  0  0  0  0  0  0  0  0
   -0.2737    0.7053    0.0144 C   0  0  0  0  0  0  0  0  0  0  0  0
   -0.3174   -0.6879    0.0483 C   0  0  0  0  0  0  0  0  0  0  0  0
   -1.5526   -1.3461    0.0685 C   0  0  0  0  0  0  0  0  0  0  0  0
    0.9328   -1.4738    0.0653 C   0  0  0  0  0  0  0  0  0  0  0  0
    0.9284   -2.6965    0.0171 O   0  0  0  0  0  0  0  0  0  0  0  0
    2.2073   -0.7343    0.1457 C   0  0  0  0  0  0  0  0  0  0  0  0
    2.2487    0.6005    0.1252 C   0  0  0  0  0  0  0  0  0  0  0  0
    1.0195    1.4116    0.0173 C   0  0  0  0  0  0  0  0  0  0  0  0
    1.0941    2.6307   -0.0610 O   0  0  0  0  0  0  0  0  0  0  0  0
   -3.9785    1.5907   -0.0540 C   0  0  0  0  0  0  0  0  0  0  0  0
   -4.5185    2.0375    1.7567 Br  0  0  0  0  0  0  0  0  0  0  0  0
   -3.6913   -1.1364    0.0721 H   0  0  0  0  0  0  0  0  0  0  0  0
   -1.4184    2.5327   -0.0463 H   0  0  0  0  0  0  0  0  0  0  0  0
   -1.5946   -2.4335    0.1060 H   0  0  0  0  0  0  0  0  0  0  0  0
    3.1077   -1.3344    0.2143 H   0  0  0  0  0  0  0  0  0  0  0  0
    3.1840    1.1465    0.1790 H   0  0  0  0  0  0  0  0  0  0  0  0
   -4.7988    1.0300   -0.5125 H   0  0  0  0  0  0  0  0  0  0  0  0
   -3.8513    2.5302   -0.6003 H   0  0  0  0  0  0  0  0  0  0  0  0
  1  2  1  0  0  0  0
  1  6  2  0  0  0  0
  1 15  1  0  0  0  0
  2  3  2  0  0  0  0
  2 13  1  0  0  0  0
  3  4  1  0  0  0  0
  3 16  1  0  0  0  0
  4  5  2  0  0  0  0
  4 11  1  0  0  0  0
  5  6  1  0  0  0  0
  5  7  1  0  0  0  0
  6 17  1  0  0  0  0
  7  8  2  0  0  0  0
  7  9  1  0  0  0  0
  9 10  2  0  0  0  0
  9 18  1  0  0  0  0
 10 11  1  0  0  0  0
 10 19  1  0  0  0  0
 11 12  2  0  0  0  0
 13 14  1  0  0  0  0
 13 20  1  0  0  0  0
 13 21  1  0  0  0  0
M  END
$$$$
