
 OpenBabel03142217213D

 44 47  0  0  1  0  0  0  0  0999 V2000
    2.8744   -0.6748   -1.6297 C   0  0  0  0  0  0  0  0  0  0  0  0
    3.0172    0.7111   -1.6117 C   0  0  0  0  0  0  0  0  0  0  0  0
    2.1002    1.4932   -0.9112 C   0  0  0  0  0  0  0  0  0  0  0  0
    1.0452    0.8795   -0.2276 C   0  0  0  0  0  0  0  0  0  0  0  0
    0.9605   -0.5293   -0.1307 C   0  0  0  0  0  0  0  0  0  0  0  0
    1.8632   -1.2902   -0.8819 C   0  0  0  0  0  0  0  0  0  0  0  0
   -0.1058   -1.1096    0.5802 N   0  0  0  0  0  0  0  0  0  0  0  0
   -1.4173   -0.6390    0.3441 C   0  0  0  0  0  0  0  0  0  0  0  0
   -1.6324    0.7472    0.1583 C   0  0  0  0  0  0  0  0  0  0  0  0
   -0.2798    1.9053    0.4188 S   0  0  0  0  0  0  0  0  0  0  0  0
   -2.8814    1.2244   -0.2497 C   0  0  0  0  0  0  0  0  0  0  0  0
   -3.9265    0.3309   -0.4848 C   0  0  0  0  0  0  0  0  0  0  0  0
   -3.7335   -1.0357   -0.2916 C   0  0  0  0  0  0  0  0  0  0  0  0
   -2.4903   -1.5168    0.1245 C   0  0  0  0  0  0  0  0  0  0  0  0
    0.0783   -2.2686    1.4849 C   0  0  0  0  0  0  0  0  0  0  0  0
    1.1178   -2.0339    2.6242 C   0  0  2  0  0  0  0  0  0  0  0  0
    2.5789   -2.3482    2.2492 C   0  0  0  0  0  0  0  0  0  0  0  0
    2.7912   -3.8365    1.9843 C   0  0  0  0  0  0  0  0  0  0  0  0
    2.2781   -4.6969    3.1434 C   0  0  0  0  0  0  0  0  0  0  0  0
    0.8946   -4.3484    3.5121 N   0  0  0  0  0  0  0  0  0  0  0  0
    0.7748   -2.9197    3.8481 C   0  0  0  0  0  0  0  0  0  0  0  0
    0.4515   -5.1909    4.6249 C   0  0  0  0  0  0  0  0  0  0  0  0
    3.5412   -1.2764   -2.2416 H   0  0  0  0  0  0  0  0  0  0  0  0
    3.8136    1.1881   -2.1759 H   0  0  0  0  0  0  0  0  0  0  0  0
    2.1844    2.5745   -0.9376 H   0  0  0  0  0  0  0  0  0  0  0  0
    1.7497   -2.3690   -0.9410 H   0  0  0  0  0  0  0  0  0  0  0  0
   -3.0361    2.2870   -0.4135 H   0  0  0  0  0  0  0  0  0  0  0  0
   -4.8873    0.7000   -0.8341 H   0  0  0  0  0  0  0  0  0  0  0  0
   -4.5424   -1.7330   -0.4945 H   0  0  0  0  0  0  0  0  0  0  0  0
   -2.3479   -2.5919    0.2029 H   0  0  0  0  0  0  0  0  0  0  0  0
    0.2772   -3.1761    0.9093 H   0  0  0  0  0  0  0  0  0  0  0  0
   -0.8773   -2.4426    1.9967 H   0  0  0  0  0  0  0  0  0  0  0  0
    1.0584   -0.9858    2.9458 H   0  0  0  0  0  0  0  0  0  0  0  0
    3.2260   -2.0520    3.0872 H   0  0  0  0  0  0  0  0  0  0  0  0
    2.9202   -1.7563    1.4016 H   0  0  0  0  0  0  0  0  0  0  0  0
    3.8596   -4.0287    1.8330 H   0  0  0  0  0  0  0  0  0  0  0  0
    2.2904   -4.1319    1.0546 H   0  0  0  0  0  0  0  0  0  0  0  0
    2.9501   -4.5686    4.0011 H   0  0  0  0  0  0  0  0  0  0  0  0
    2.3282   -5.7445    2.8398 H   0  0  0  0  0  0  0  0  0  0  0  0
    1.4347   -2.6653    4.6895 H   0  0  0  0  0  0  0  0  0  0  0  0
   -0.2470   -2.6923    4.1774 H   0  0  0  0  0  0  0  0  0  0  0  0
    0.3465   -6.2277    4.2865 H   0  0  0  0  0  0  0  0  0  0  0  0
   -0.5337   -4.8803    4.9896 H   0  0  0  0  0  0  0  0  0  0  0  0
    1.1500   -5.1716    5.4695 H   0  0  0  0  0  0  0  0  0  0  0  0
  1  2  1  0  0  0  0
  1  6  2  0  0  0  0
  1 23  1  0  0  0  0
  2  3  2  0  0  0  0
  2 24  1  0  0  0  0
  3  4  1  0  0  0  0
  3 25  1  0  0  0  0
  4  5  2  0  0  0  0
  4 10  1  0  0  0  0
  5  6  1  0  0  0  0
  5  7  1  0  0  0  0
  6 26  1  0  0  0  0
  7  8  1  0  0  0  0
  7 15  1  0  0  0  0
  8  9  1  0  0  0  0
  8 14  2  0  0  0  0
  9 10  1  0  0  0  0
  9 11  2  0  0  0  0
 11 12  1  0  0  0  0
 11 27  1  0  0  0  0
 12 13  2  0  0  0  0
 12 28  1  0  0  0  0
 13 14  1  0  0  0  0
 13 29  1  0  0  0  0
 14 30  1  0  0  0  0
 15 16  1  0  0  0  0
 15 31  1  0  0  0  0
 15 32  1  0  0  0  0
 16 17  1  0  0  0  0
 16 21  1  0  0  0  0
 16 33  1  1  0  0  0
 17 18  1  0  0  0  0
 17 34  1  0  0  0  0
 17 35  1  0  0  0  0
 18 19  1  0  0  0  0
 18 36  1  0  0  0  0
 18 37  1  0  0  0  0
 19 20  1  0  0  0  0
 19 38  1  0  0  0  0
 19 39  1  0  0  0  0
 20 21  1  0  0  0  0
 20 22  1  0  0  0  0
 21 40  1  0  0  0  0
 21 41  1  0  0  0  0
 22 42  1  0  0  0  0
 22 43  1  0  0  0  0
 22 44  1  0  0  0  0
M  END
$$$$
