
 OpenBabel03142217213D

 42 45  0  0  0  0  0  0  0  0999 V2000
    3.7553   -0.3491   -0.3689 C   0  0  0  0  0  0  0  0  0  0  0  0
    3.6189    0.9876   -0.0376 C   0  0  0  0  0  0  0  0  0  0  0  0
    2.3442    1.5403    0.0729 C   0  0  0  0  0  0  0  0  0  0  0  0
    1.1974    0.7641   -0.0336 C   0  0  0  0  0  0  0  0  0  0  0  0
    1.3204   -0.6194   -0.2489 C   0  0  0  0  0  0  0  0  0  0  0  0
    2.6125   -1.1250   -0.5408 C   0  0  0  0  0  0  0  0  0  0  0  0
    0.1395   -1.4079   -0.1336 C   0  0  0  0  0  0  0  0  0  0  0  0
   -1.1137   -0.7443    0.0014 C   0  0  0  0  0  0  0  0  0  0  0  0
   -1.1068    0.6642    0.0673 C   0  0  0  0  0  0  0  0  0  0  0  0
    0.0193    1.3841    0.0923 N   0  0  0  0  0  0  0  0  0  0  0  0
   -2.3125    1.3536    0.1076 C   0  0  0  0  0  0  0  0  0  0  0  0
   -3.5416    0.6946    0.1177 C   0  0  0  0  0  0  0  0  0  0  0  0
   -3.5694   -0.6918    0.1038 C   0  0  0  0  0  0  0  0  0  0  0  0
   -2.3688   -1.4046    0.0463 C   0  0  0  0  0  0  0  0  0  0  0  0
    0.1302   -2.8278   -0.2435 N   0  0  0  0  0  0  0  0  0  0  0  0
    0.9097   -3.6672    0.3793 C   0  0  0  0  0  0  0  0  0  0  0  0
    0.8325   -5.1783    0.0733 C   0  0  0  0  0  0  0  0  0  0  0  0
    1.8904   -5.9278    0.4095 C   0  0  0  0  0  0  0  0  0  0  0  0
    3.0990   -5.4118    1.0746 C   0  0  0  0  0  0  0  0  0  0  0  0
    4.1110   -6.0910    1.2086 O   0  0  0  0  0  0  0  0  0  0  0  0
    3.0161   -4.0585    1.6318 C   0  0  0  0  0  0  0  0  0  0  0  0
    1.9508   -3.2882    1.3916 C   0  0  0  0  0  0  0  0  0  0  0  0
   -0.2944   -5.7384   -0.5577 N   0  0  0  0  0  0  0  0  0  0  0  0
   -0.7580   -7.1059   -0.2984 C   0  0  0  0  0  0  0  0  0  0  0  0
   -1.0846   -5.0522   -1.5799 C   0  0  0  0  0  0  0  0  0  0  0  0
    4.7394   -0.7965   -0.4822 H   0  0  0  0  0  0  0  0  0  0  0  0
    4.4989    1.6081    0.1154 H   0  0  0  0  0  0  0  0  0  0  0  0
    2.2403    2.6060    0.2666 H   0  0  0  0  0  0  0  0  0  0  0  0
    2.7365   -2.1571   -0.8562 H   0  0  0  0  0  0  0  0  0  0  0  0
   -2.2932    2.4428    0.1254 H   0  0  0  0  0  0  0  0  0  0  0  0
   -4.4660    1.2675    0.1427 H   0  0  0  0  0  0  0  0  0  0  0  0
   -4.5195   -1.2191    0.1256 H   0  0  0  0  0  0  0  0  0  0  0  0
   -2.4044   -2.4907    0.0221 H   0  0  0  0  0  0  0  0  0  0  0  0
    1.9479   -6.9895    0.1865 H   0  0  0  0  0  0  0  0  0  0  0  0
    3.8529   -3.7262    2.2352 H   0  0  0  0  0  0  0  0  0  0  0  0
    1.8994   -2.2976    1.8259 H   0  0  0  0  0  0  0  0  0  0  0  0
   -0.2016   -7.6016    0.5035 H   0  0  0  0  0  0  0  0  0  0  0  0
   -0.6675   -7.7142   -1.2038 H   0  0  0  0  0  0  0  0  0  0  0  0
   -1.8091   -7.0892    0.0074 H   0  0  0  0  0  0  0  0  0  0  0  0
   -0.6022   -4.1626   -1.9876 H   0  0  0  0  0  0  0  0  0  0  0  0
   -2.0705   -4.7896   -1.1839 H   0  0  0  0  0  0  0  0  0  0  0  0
   -1.2311   -5.7177   -2.4386 H   0  0  0  0  0  0  0  0  0  0  0  0
  1  2  1  0  0  0  0
  1  6  2  0  0  0  0
  1 26  1  0  0  0  0
  2  3  2  0  0  0  0
  2 27  1  0  0  0  0
  3  4  1  0  0  0  0
  3 28  1  0  0  0  0
  4  5  1  0  0  0  0
  4 10  2  0  0  0  0
  5  6  1  0  0  0  0
  5  7  2  0  0  0  0
  6 29  1  0  0  0  0
  7  8  1  0  0  0  0
  7 15  1  0  0  0  0
  8  9  1  0  0  0  0
  8 14  2  0  0  0  0
  9 10  1  0  0  0  0
  9 11  2  0  0  0  0
 11 12  1  0  0  0  0
 11 30  1  0  0  0  0
 12 13  2  0  0  0  0
 12 31  1  0  0  0  0
 13 14  1  0  0  0  0
 13 32  1  0  0  0  0
 14 33  1  0  0  0  0
 15 16  2  0  0  0  0
 16 17  1  0  0  0  0
 16 22  1  0  0  0  0
 17 18  2  0  0  0  0
 17 23  1  0  0  0  0
 18 19  1  0  0  0  0
 18 34  1  0  0  0  0
 19 20  2  0  0  0  0
 19 21  1  0  0  0  0
 21 22  2  0  0  0  0
 21 35  1  0  0  0  0
 22 36  1  0  0  0  0
 23 24  1  0  0  0  0
 23 25  1  0  0  0  0
 24 37  1  0  0  0  0
 24 38  1  0  0  0  0
 24 39  1  0  0  0  0
 25 40  1  0  0  0  0
 25 41  1  0  0  0  0
 25 42  1  0  0  0  0
M  END
$$$$
