
 OpenBabel03142217213D

 30 32  0  0  0  0  0  0  0  0999 V2000
    3.6596   -0.9650   -0.2682 C   0  0  0  0  0  0  0  0  0  0  0  0
    3.7378    0.3671   -0.6606 C   0  0  0  0  0  0  0  0  0  0  0  0
    2.6342    1.2058   -0.5215 C   0  0  0  0  0  0  0  0  0  0  0  0
    1.4299    0.7055   -0.0093 C   0  0  0  0  0  0  0  0  0  0  0  0
    1.3499   -0.6300    0.4168 C   0  0  0  0  0  0  0  0  0  0  0  0
    2.4731   -1.4612    0.2782 C   0  0  0  0  0  0  0  0  0  0  0  0
    0.1273   -1.2079    0.7862 N   0  0  0  0  0  0  0  0  0  0  0  0
   -1.1437   -0.7609    0.3783 C   0  0  0  0  0  0  0  0  0  0  0  0
   -1.3217    0.5911   -0.0035 C   0  0  0  0  0  0  0  0  0  0  0  0
    0.0136    1.7875    0.0943 S   0  0  0  0  0  0  0  0  0  0  0  0
   -2.5618    1.0494   -0.4650 C   0  0  0  0  0  0  0  0  0  0  0  0
   -3.6270    0.1642   -0.5961 C   0  0  0  0  0  0  0  0  0  0  0  0
   -3.4541   -1.1787   -0.2688 C   0  0  0  0  0  0  0  0  0  0  0  0
   -2.2192   -1.6564    0.1956 C   0  0  0  0  0  0  0  0  0  0  0  0
   -2.2213   -3.0111    0.4333 O   0  0  0  0  0  0  0  0  0  0  0  0
   -1.0348   -3.7403    0.1183 C   0  0  0  0  0  0  0  0  0  0  0  0
   -1.4128   -5.1346   -0.3519 C   0  0  0  0  0  0  0  0  0  0  0  0
    4.5073   -1.6283   -0.4118 H   0  0  0  0  0  0  0  0  0  0  0  0
    4.6585    0.7535   -1.0953 H   0  0  0  0  0  0  0  0  0  0  0  0
    2.7040    2.2439   -0.8376 H   0  0  0  0  0  0  0  0  0  0  0  0
    2.4106   -2.5116    0.5395 H   0  0  0  0  0  0  0  0  0  0  0  0
    0.1557   -1.9987    1.4067 H   0  0  0  0  0  0  0  0  0  0  0  0
   -2.6978    2.0932   -0.7360 H   0  0  0  0  0  0  0  0  0  0  0  0
   -4.5846    0.5181   -0.9701 H   0  0  0  0  0  0  0  0  0  0  0  0
   -4.2818   -1.8703   -0.4019 H   0  0  0  0  0  0  0  0  0  0  0  0
   -0.4423   -3.8489    1.0308 H   0  0  0  0  0  0  0  0  0  0  0  0
   -0.4419   -3.2598   -0.6683 H   0  0  0  0  0  0  0  0  0  0  0  0
   -2.0702   -5.6263    0.3710 H   0  0  0  0  0  0  0  0  0  0  0  0
   -0.5142   -5.7458   -0.4856 H   0  0  0  0  0  0  0  0  0  0  0  0
   -1.9489   -5.0866   -1.3034 H   0  0  0  0  0  0  0  0  0  0  0  0
  1  2  1  0  0  0  0
  1  6  2  0  0  0  0
  1 18  1  0  0  0  0
  2  3  2  0  0  0  0
  2 19  1  0  0  0  0
  3  4  1  0  0  0  0
  3 20  1  0  0  0  0
  4  5  2  0  0  0  0
  4 10  1  0  0  0  0
  5  6  1  0  0  0  0
  5  7  1  0  0  0  0
  6 21  1  0  0  0  0
  7  8  1  0  0  0  0
  7 22  1  0  0  0  0
  8  9  1  0  0  0  0
  8 14  2  0  0  0  0
  9 10  1  0  0  0  0
  9 11  2  0  0  0  0
 11 12  1  0  0  0  0
 11 23  1  0  0  0  0
 12 13  2  0  0  0  0
 12 24  1  0  0  0  0
 13 14  1  0  0  0  0
 13 25  1  0  0  0  0
 14 15  1  0  0  0  0
 15 16  1  0  0  0  0
 16 17  1  0  0  0  0
 16 26  1  0  0  0  0
 16 27  1  0  0  0  0
 17 28  1  0  0  0  0
 17 29  1  0  0  0  0
 17 30  1  0  0  0  0
M  END
$$$$
