
 OpenBabel03142217213D

 27 29  0  0  0  0  0  0  0  0999 V2000
    3.6633   -0.9857   -0.2478 C   0  0  0  0  0  0  0  0  0  0  0  0
    3.7536    0.3477   -0.6363 C   0  0  0  0  0  0  0  0  0  0  0  0
    2.6432    1.1838   -0.5145 C   0  0  0  0  0  0  0  0  0  0  0  0
    1.4319    0.6807   -0.0297 C   0  0  0  0  0  0  0  0  0  0  0  0
    1.3397   -0.6567    0.3886 C   0  0  0  0  0  0  0  0  0  0  0  0
    2.4668   -1.4823    0.2735 C   0  0  0  0  0  0  0  0  0  0  0  0
    0.1077   -1.2398    0.7268 N   0  0  0  0  0  0  0  0  0  0  0  0
   -1.1618   -0.7570    0.3573 C   0  0  0  0  0  0  0  0  0  0  0  0
   -1.3208    0.5905   -0.0428 C   0  0  0  0  0  0  0  0  0  0  0  0
    0.0228    1.7738    0.0484 S   0  0  0  0  0  0  0  0  0  0  0  0
   -2.5587    1.0646   -0.4943 C   0  0  0  0  0  0  0  0  0  0  0  0
   -3.6418    0.2005   -0.6007 C   0  0  0  0  0  0  0  0  0  0  0  0
   -3.4967   -1.1363   -0.2338 C   0  0  0  0  0  0  0  0  0  0  0  0
   -2.2683   -1.6246    0.2334 C   0  0  0  0  0  0  0  0  0  0  0  0
   -2.2991   -2.9512    0.5890 O   0  0  0  0  0  0  0  0  0  0  0  0
   -1.2171   -3.7614    0.1410 C   0  0  0  0  0  0  0  0  0  0  0  0
    4.5163   -1.6474   -0.3741 H   0  0  0  0  0  0  0  0  0  0  0  0
    4.6790    0.7345   -1.0524 H   0  0  0  0  0  0  0  0  0  0  0  0
    2.7223    2.2230   -0.8241 H   0  0  0  0  0  0  0  0  0  0  0  0
    2.4026   -2.5355    0.5338 H   0  0  0  0  0  0  0  0  0  0  0  0
    0.1254   -2.0191    1.3589 H   0  0  0  0  0  0  0  0  0  0  0  0
   -2.6786    2.1085   -0.7759 H   0  0  0  0  0  0  0  0  0  0  0  0
   -4.5949    0.5654   -0.9757 H   0  0  0  0  0  0  0  0  0  0  0  0
   -4.3416   -1.8123   -0.3357 H   0  0  0  0  0  0  0  0  0  0  0  0
   -1.6077   -4.7641   -0.0578 H   0  0  0  0  0  0  0  0  0  0  0  0
   -0.4816   -3.8710    0.9440 H   0  0  0  0  0  0  0  0  0  0  0  0
   -0.7474   -3.3940   -0.7771 H   0  0  0  0  0  0  0  0  0  0  0  0
  1  2  1  0  0  0  0
  1  6  2  0  0  0  0
  1 17  1  0  0  0  0
  2  3  2  0  0  0  0
  2 18  1  0  0  0  0
  3  4  1  0  0  0  0
  3 19  1  0  0  0  0
  4  5  2  0  0  0  0
  4 10  1  0  0  0  0
  5  6  1  0  0  0  0
  5  7  1  0  0  0  0
  6 20  1  0  0  0  0
  7  8  1  0  0  0  0
  7 21  1  0  0  0  0
  8  9  1  0  0  0  0
  8 14  2  0  0  0  0
  9 10  1  0  0  0  0
  9 11  2  0  0  0  0
 11 12  1  0  0  0  0
 11 22  1  0  0  0  0
 12 13  2  0  0  0  0
 12 23  1  0  0  0  0
 13 14  1  0  0  0  0
 13 24  1  0  0  0  0
 14 15  1  0  0  0  0
 15 16  1  0  0  0  0
 16 25  1  0  0  0  0
 16 26  1  0  0  0  0
 16 27  1  0  0  0  0
M  END
$$$$
