
 OpenBabel03142217213D

 38 41  0  0  0  0  0  0  0  0999 V2000
    3.7831   -0.3078   -0.2499 C   0  0  0  0  0  0  0  0  0  0  0  0
    3.6158    1.0415   -0.0045 C   0  0  0  0  0  0  0  0  0  0  0  0
    2.3236    1.5641    0.0763 C   0  0  0  0  0  0  0  0  0  0  0  0
    1.1883    0.7661   -0.0024 C   0  0  0  0  0  0  0  0  0  0  0  0
    1.3343   -0.6334   -0.1510 C   0  0  0  0  0  0  0  0  0  0  0  0
    2.6544   -1.1183   -0.3634 C   0  0  0  0  0  0  0  0  0  0  0  0
    0.1539   -1.4524   -0.0623 C   0  0  0  0  0  0  0  0  0  0  0  0
   -1.1019   -0.7662    0.0139 C   0  0  0  0  0  0  0  0  0  0  0  0
   -1.1041    0.6445    0.0585 C   0  0  0  0  0  0  0  0  0  0  0  0
    0.0083    1.3878    0.0847 N   0  0  0  0  0  0  0  0  0  0  0  0
   -2.3180    1.3228    0.0928 C   0  0  0  0  0  0  0  0  0  0  0  0
   -3.5460    0.6614    0.1020 C   0  0  0  0  0  0  0  0  0  0  0  0
   -3.5667   -0.7236    0.0896 C   0  0  0  0  0  0  0  0  0  0  0  0
   -2.3599   -1.4245    0.0443 C   0  0  0  0  0  0  0  0  0  0  0  0
    0.1302   -2.8170   -0.1215 N   0  0  0  0  0  2  0  0  0  0  0  0
    1.0421   -3.6277    0.4826 C   0  0  0  0  0  0  0  0  0  0  0  0
    1.4185   -4.8859    0.1011 C   0  0  0  0  0  0  0  0  0  0  0  0
    2.5061   -5.5679    0.7619 C   0  0  0  0  0  3  0  0  0  0  0  0
    3.2800   -4.9067    1.8189 C   0  0  0  0  0  0  0  0  0  0  0  0
    4.3207   -5.3818    2.2606 O   0  0  0  0  0  0  0  0  0  0  0  0
    2.7094   -3.6570    2.3413 C   0  0  0  0  0  0  0  0  0  0  0  0
    1.6393   -3.1204    1.7407 C   0  0  0  0  0  0  0  0  0  0  0  0
    0.9685   -5.6307   -0.9695 O   0  0  0  0  0  0  0  0  0  0  0  0
    0.1796   -4.9734   -1.9523 C   0  0  0  0  0  0  0  0  0  0  0  0
    4.7713   -0.7480   -0.3292 H   0  0  0  0  0  0  0  0  0  0  0  0
    4.4773    1.6896    0.1117 H   0  0  0  0  0  0  0  0  0  0  0  0
    2.1911    2.6318    0.2257 H   0  0  0  0  0  0  0  0  0  0  0  0
    2.8066   -2.1725   -0.5803 H   0  0  0  0  0  0  0  0  0  0  0  0
   -2.3019    2.4128    0.1003 H   0  0  0  0  0  0  0  0  0  0  0  0
   -4.4719    1.2264    0.1264 H   0  0  0  0  0  0  0  0  0  0  0  0
   -4.5069   -1.2653    0.1090 H   0  0  0  0  0  0  0  0  0  0  0  0
   -2.3846   -2.5132    0.0300 H   0  0  0  0  0  0  0  0  0  0  0  0
    2.9328   -6.4532    0.3151 H   0  0  0  0  0  0  0  0  0  0  0  0
    3.1759   -3.2117    3.2071 H   0  0  0  0  0  0  0  0  0  0  0  0
    1.2105   -2.2171    2.1687 H   0  0  0  0  0  0  0  0  0  0  0  0
   -0.0303   -5.7004   -2.7430 H   0  0  0  0  0  0  0  0  0  0  0  0
    0.7361   -4.1494   -2.4111 H   0  0  0  0  0  0  0  0  0  0  0  0
   -0.7900   -4.6547   -1.5584 H   0  0  0  0  0  0  0  0  0  0  0  0
  1  2  1  0  0  0  0
  1  6  2  0  0  0  0
  1 25  1  0  0  0  0
  2  3  2  0  0  0  0
  2 26  1  0  0  0  0
  3  4  1  0  0  0  0
  3 27  1  0  0  0  0
  4  5  1  0  0  0  0
  4 10  2  0  0  0  0
  5  6  1  0  0  0  0
  5  7  2  0  0  0  0
  6 28  1  0  0  0  0
  7  8  1  0  0  0  0
  7 15  1  0  0  0  0
  8  9  1  0  0  0  0
  8 14  2  0  0  0  0
  9 10  1  0  0  0  0
  9 11  2  0  0  0  0
 11 12  1  0  0  0  0
 11 29  1  0  0  0  0
 12 13  2  0  0  0  0
 12 30  1  0  0  0  0
 13 14  1  0  0  0  0
 13 31  1  0  0  0  0
 14 32  1  0  0  0  0
 15 16  1  0  0  0  0
 16 17  2  0  0  0  0
 16 22  1  0  0  0  0
 17 18  1  0  0  0  0
 17 23  1  0  0  0  0
 18 19  1  0  0  0  0
 18 33  1  0  0  0  0
 19 20  2  0  0  0  0
 19 21  1  0  0  0  0
 21 22  2  0  0  0  0
 21 34  1  0  0  0  0
 22 35  1  0  0  0  0
 23 24  1  0  0  0  0
 24 36  1  0  0  0  0
 24 37  1  0  0  0  0
 24 38  1  0  0  0  0
M  END
$$$$
