
 OpenBabel03142217213D

 30 32  0  0  0  0  0  0  0  0999 V2000
   -2.4456    0.7523    0.0003 C   0  0  0  0  0  0  0  0  0  0  0  0
   -1.3078    1.4668    0.0034 C   0  0  0  0  0  0  0  0  0  0  0  0
   -0.0439    0.7343    0.0035 C   0  0  0  0  0  0  0  0  0  0  0  0
   -0.0357   -0.7498    0.0028 C   0  0  0  0  0  0  0  0  0  0  0  0
   -1.2566   -1.3339   -0.0001 C   0  0  0  0  0  0  0  0  0  0  0  0
   -2.4769   -0.6420   -0.0017 N   0  0  0  0  0  0  0  0  0  0  0  0
   -3.7531   -1.3542   -0.0048 C   0  0  0  0  0  0  0  0  0  0  0  0
    1.2602   -1.4685    0.0042 C   0  0  0  0  0  0  0  0  0  0  0  0
    2.5376   -0.6649    0.0007 C   0  0  0  0  0  0  0  0  0  0  0  0
    2.4086    0.6818    0.0009 C   0  0  0  0  0  0  0  0  0  0  0  0
    1.1351    1.3811    0.0035 C   0  0  0  0  0  0  0  0  0  0  0  0
    3.7655   -1.3778   -0.0026 N   0  0  0  0  0  0  0  0  0  0  0  0
    3.7391   -2.7720    0.0003 C   0  0  0  0  0  0  0  0  0  0  0  0
    2.6173   -3.5005    0.0064 C   0  0  0  0  0  0  0  0  0  0  0  0
    1.3445   -2.8188    0.0087 C   0  0  0  0  0  0  0  0  0  0  0  0
    5.0798   -0.7278   -0.0089 C   0  0  0  0  0  0  0  0  0  0  0  0
   -3.4184    1.2341   -0.0006 H   0  0  0  0  0  0  0  0  0  0  0  0
   -1.3168    2.5493    0.0053 H   0  0  0  0  0  0  0  0  0  0  0  0
   -1.3859   -2.4087   -0.0016 H   0  0  0  0  0  0  0  0  0  0  0  0
   -3.6182   -2.4415   -0.0040 H   0  0  0  0  0  0  0  0  0  0  0  0
   -4.3321   -1.0911   -0.8965 H   0  0  0  0  0  0  0  0  0  0  0  0
   -4.3366   -1.0905    0.8838 H   0  0  0  0  0  0  0  0  0  0  0  0
    3.2688    1.3382   -0.0009 H   0  0  0  0  0  0  0  0  0  0  0  0
    1.1808    2.4660    0.0041 H   0  0  0  0  0  0  0  0  0  0  0  0
    4.7140   -3.2509   -0.0027 H   0  0  0  0  0  0  0  0  0  0  0  0
    2.6382   -4.5835    0.0085 H   0  0  0  0  0  0  0  0  0  0  0  0
    0.4749   -3.4632    0.0130 H   0  0  0  0  0  0  0  0  0  0  0  0
    5.0437    0.3629   -0.0123 H   0  0  0  0  0  0  0  0  0  0  0  0
    5.6429   -1.0327   -0.8984 H   0  0  0  0  0  0  0  0  0  0  0  0
    5.6488   -1.0275    0.8786 H   0  0  0  0  0  0  0  0  0  0  0  0
  1  2  2  0  0  0  0
  1  6  1  0  0  0  0
  1 17  1  0  0  0  0
  2  3  1  0  0  0  0
  2 18  1  0  0  0  0
  3  4  1  0  0  0  0
  3 11  2  0  0  0  0
  4  5  2  0  0  0  0
  4  8  1  0  0  0  0
  5  6  1  0  0  0  0
  5 19  1  0  0  0  0
  6  7  1  0  0  0  0
  7 20  1  0  0  0  0
  7 21  1  0  0  0  0
  7 22  1  0  0  0  0
  8  9  1  0  0  0  0
  8 15  2  0  0  0  0
  9 10  2  0  0  0  0
  9 12  1  0  0  0  0
 10 11  1  0  0  0  0
 10 23  1  0  0  0  0
 11 24  1  0  0  0  0
 12 13  1  0  0  0  0
 12 16  1  0  0  0  0
 13 14  2  0  0  0  0
 13 25  1  0  0  0  0
 14 15  1  0  0  0  0
 14 26  1  0  0  0  0
 15 27  1  0  0  0  0
 16 28  1  0  0  0  0
 16 29  1  0  0  0  0
 16 30  1  0  0  0  0
M  END
$$$$
