
 OpenBabel03142217213D

 30 32  0  0  0  0  0  0  0  0999 V2000
    2.7099    0.3687   -0.1403 C   0  0  0  0  0  0  0  0  0  0  0  0
    2.5316   -1.0447   -0.0811 C   0  0  0  0  0  0  0  0  0  0  0  0
    1.3047   -1.6130   -0.0565 C   0  0  0  0  0  0  0  0  0  0  0  0
   -0.0036   -0.7740   -0.0540 C   0  0  0  0  0  0  0  0  0  0  0  0
    0.2901    0.6592   -0.0528 N   0  0  0  0  0  0  0  0  0  0  0  0
    1.6142    1.1205   -0.1448 C   0  0  0  0  0  0  0  0  0  0  0  0
   -0.6550    1.7504    0.1391 C   0  0  0  0  0  0  0  0  0  0  0  0
   -1.2048   -1.5096   -0.0399 C   0  0  0  0  0  0  0  0  0  0  0  0
   -1.0507   -3.0539    0.0428 C   0  0  0  0  0  0  0  0  0  0  0  0
    0.2108   -3.7490   -0.0294 C   0  0  0  0  0  0  0  0  0  0  0  0
    1.3467   -3.0622   -0.0719 C   0  0  0  0  0  0  0  0  0  0  0  0
   -2.1077   -3.8818    0.1817 C   0  0  0  0  0  0  0  0  0  0  0  0
   -3.4420   -3.3917    0.2566 C   0  0  0  0  0  0  0  0  0  0  0  0
   -3.6227   -2.0815    0.1122 C   0  0  0  0  0  0  0  0  0  0  0  0
   -2.6138   -1.1235   -0.0823 N   0  0  0  0  0  0  0  0  0  0  0  0
   -3.1436    0.2157   -0.3044 C   0  0  0  0  0  0  0  0  0  0  0  0
    3.7063    0.7894   -0.1779 H   0  0  0  0  0  0  0  0  0  0  0  0
    3.4444   -1.6329   -0.0797 H   0  0  0  0  0  0  0  0  0  0  0  0
    1.7274    2.2017   -0.1901 H   0  0  0  0  0  0  0  0  0  0  0  0
   -1.4791    1.4841    0.7822 H   0  0  0  0  0  0  0  0  0  0  0  0
   -0.9699    2.1582   -0.8287 H   0  0  0  0  0  0  0  0  0  0  0  0
   -0.1916    2.5859    0.6838 H   0  0  0  0  0  0  0  0  0  0  0  0
    0.2554   -4.8361   -0.0502 H   0  0  0  0  0  0  0  0  0  0  0  0
    2.2925   -3.5873   -0.1260 H   0  0  0  0  0  0  0  0  0  0  0  0
   -1.9979   -4.9611    0.2379 H   0  0  0  0  0  0  0  0  0  0  0  0
   -4.2652   -4.0800    0.3986 H   0  0  0  0  0  0  0  0  0  0  0  0
   -4.6391   -1.6955    0.1380 H   0  0  0  0  0  0  0  0  0  0  0  0
   -4.1774    0.1942   -0.6796 H   0  0  0  0  0  0  0  0  0  0  0  0
   -2.5908    0.7611   -1.0662 H   0  0  0  0  0  0  0  0  0  0  0  0
   -3.2213    0.7421    0.6521 H   0  0  0  0  0  0  0  0  0  0  0  0
  1  2  1  0  0  0  0
  1  6  2  0  0  0  0
  1 17  1  0  0  0  0
  2  3  2  0  0  0  0
  2 18  1  0  0  0  0
  3  4  1  0  0  0  0
  3 11  1  0  0  0  0
  4  5  1  0  0  0  0
  4  8  2  0  0  0  0
  5  6  1  0  0  0  0
  5  7  1  0  0  0  0
  6 19  1  0  0  0  0
  7 20  1  0  0  0  0
  7 21  1  0  0  0  0
  7 22  1  0  0  0  0
  8  9  1  0  0  0  0
  8 15  1  0  0  0  0
  9 10  1  0  0  0  0
  9 12  2  0  0  0  0
 10 11  2  0  0  0  0
 10 23  1  0  0  0  0
 11 24  1  0  0  0  0
 12 13  1  0  0  0  0
 12 25  1  0  0  0  0
 13 14  2  0  0  0  0
 13 26  1  0  0  0  0
 14 15  1  0  0  0  0
 14 27  1  0  0  0  0
 15 16  1  0  0  0  0
 16 28  1  0  0  0  0
 16 29  1  0  0  0  0
 16 30  1  0  0  0  0
M  END
$$$$
