
 OpenBabel03142217213D

 37 39  0  0  0  0  0  0  0  0999 V2000
   -0.6700    1.2401    0.2453 C   0  0  0  0  0  0  0  0  0  0  0  0
    0.5844    0.9059   -0.0675 C   0  0  0  0  0  0  0  0  0  0  0  0
    1.0173   -0.4090   -0.2190 N   0  0  0  0  0  0  0  0  0  0  0  0
    0.2089   -1.4582    0.2754 C   0  0  0  0  0  0  0  0  0  0  0  0
   -1.0537   -1.2231    0.6883 C   0  0  0  0  0  0  0  0  0  0  0  0
   -1.6625    0.1606    0.6094 C   0  0  0  0  0  0  0  0  0  0  0  0
    0.7526   -2.8176    0.1064 C   0  0  0  0  0  0  0  0  0  0  0  0
    1.3786   -3.4235    1.1351 C   0  0  0  0  0  0  0  0  0  0  0  0
    2.2108   -4.6694    0.9392 C   0  0  0  0  0  0  0  0  0  0  0  0
    2.2539   -5.1467   -0.4949 C   0  0  0  0  0  0  0  0  0  0  0  0
    1.5616   -4.4948   -1.4398 C   0  0  0  0  0  0  0  0  0  0  0  0
    0.8226   -3.3434   -1.2060 N   0  0  0  0  0  0  0  0  0  0  0  0
    0.2411   -2.6133   -2.3490 C   0  0  0  0  0  0  0  0  0  0  0  0
    0.7548   -1.1744   -2.5188 C   0  0  0  0  0  0  0  0  0  0  0  0
    1.7702   -0.7086   -1.4625 C   0  0  0  0  0  0  0  0  0  0  0  0
    3.1206   -6.3176   -0.8359 C   0  0  0  0  0  0  0  0  0  0  0  0
   -1.1436    2.6508    0.1100 C   0  0  0  0  0  0  0  0  0  0  0  0
    1.3322    1.6409   -0.3666 H   0  0  0  0  0  0  0  0  0  0  0  0
   -1.7011   -2.0438    0.9806 H   0  0  0  0  0  0  0  0  0  0  0  0
   -2.1270    0.4016    1.5695 H   0  0  0  0  0  0  0  0  0  0  0  0
   -2.4520    0.1441   -0.1529 H   0  0  0  0  0  0  0  0  0  0  0  0
    1.3925   -2.9647    2.1182 H   0  0  0  0  0  0  0  0  0  0  0  0
    1.8309   -5.4658    1.5898 H   0  0  0  0  0  0  0  0  0  0  0  0
    3.2351   -4.4412    1.2606 H   0  0  0  0  0  0  0  0  0  0  0  0
    1.5801   -4.8269   -2.4744 H   0  0  0  0  0  0  0  0  0  0  0  0
   -0.8527   -2.6192   -2.2586 H   0  0  0  0  0  0  0  0  0  0  0  0
    0.4493   -3.1453   -3.2845 H   0  0  0  0  0  0  0  0  0  0  0  0
   -0.1188   -0.5075   -2.5079 H   0  0  0  0  0  0  0  0  0  0  0  0
    1.1888   -1.0601   -3.5183 H   0  0  0  0  0  0  0  0  0  0  0  0
    2.2745    0.1959   -1.8233 H   0  0  0  0  0  0  0  0  0  0  0  0
    2.5676   -1.4404   -1.2897 H   0  0  0  0  0  0  0  0  0  0  0  0
    3.7164   -6.6389    0.0235 H   0  0  0  0  0  0  0  0  0  0  0  0
    3.8213   -6.0484   -1.6340 H   0  0  0  0  0  0  0  0  0  0  0  0
    2.5185   -7.1681   -1.1702 H   0  0  0  0  0  0  0  0  0  0  0  0
   -0.3128    3.3418   -0.0820 H   0  0  0  0  0  0  0  0  0  0  0  0
   -1.6600    2.9834    1.0101 H   0  0  0  0  0  0  0  0  0  0  0  0
   -1.8258    2.7226   -0.7447 H   0  0  0  0  0  0  0  0  0  0  0  0
  1  2  2  0  0  0  0
  1  6  1  0  0  0  0
  1 17  1  0  0  0  0
  2  3  1  0  0  0  0
  2 18  1  0  0  0  0
  3  4  1  0  0  0  0
  3 15  1  0  0  0  0
  4  5  2  0  0  0  0
  4  7  1  0  0  0  0
  5  6  1  0  0  0  0
  5 19  1  0  0  0  0
  6 20  1  0  0  0  0
  6 21  1  0  0  0  0
  7  8  2  0  0  0  0
  7 12  1  0  0  0  0
  8  9  1  0  0  0  0
  8 22  1  0  0  0  0
  9 10  1  0  0  0  0
  9 23  1  0  0  0  0
  9 24  1  0  0  0  0
 10 11  2  0  0  0  0
 10 16  1  0  0  0  0
 11 12  1  0  0  0  0
 11 25  1  0  0  0  0
 12 13  1  0  0  0  0
 13 14  1  0  0  0  0
 13 26  1  0  0  0  0
 13 27  1  0  0  0  0
 14 15  1  0  0  0  0
 14 28  1  0  0  0  0
 14 29  1  0  0  0  0
 15 30  1  0  0  0  0
 15 31  1  0  0  0  0
 16 32  1  0  0  0  0
 16 33  1  0  0  0  0
 16 34  1  0  0  0  0
 17 35  1  0  0  0  0
 17 36  1  0  0  0  0
 17 37  1  0  0  0  0
M  END
$$$$
