
 OpenBabel03142217213D

 27 29  0  0  0  0  0  0  0  0999 V2000
    3.6754    0.8223    0.0015 C   0  0  0  0  0  0  0  0  0  0  0  0
    3.8060   -0.5634    0.0018 C   0  0  0  0  0  0  0  0  0  0  0  0
    2.6568   -1.3545   -0.0017 C   0  0  0  0  0  0  0  0  0  0  0  0
    1.3784   -0.7789   -0.0046 C   0  0  0  0  0  0  0  0  0  0  0  0
    1.2413    0.6178   -0.0000 C   0  0  0  0  0  0  0  0  0  0  0  0
    2.4022    1.4058   -0.0008 C   0  0  0  0  0  0  0  0  0  0  0  0
   -0.0149    1.2466   -0.0170 N   0  0  0  0  0  0  0  0  0  0  0  0
   -1.2731    0.6201   -0.0008 C   0  0  0  0  0  0  0  0  0  0  0  0
   -1.4097   -0.7804   -0.0048 C   0  0  0  0  0  0  0  0  0  0  0  0
   -0.0154   -1.8911   -0.0120 S   0  0  0  0  0  0  0  0  0  0  0  0
   -2.6874   -1.3609   -0.0019 C   0  0  0  0  0  0  0  0  0  0  0  0
   -3.8296   -0.5618    0.0012 C   0  0  0  0  0  0  0  0  0  0  0  0
   -3.6958    0.8219    0.0005 C   0  0  0  0  0  0  0  0  0  0  0  0
   -2.4314    1.4128   -0.0027 C   0  0  0  0  0  0  0  0  0  0  0  0
   -5.1027    1.8128    0.0011 Cl  0  0  0  0  0  0  0  0  0  0  0  0
    4.9784   -1.2659    0.0042 O   0  0  0  0  0  0  0  0  0  0  0  0
    6.1828   -0.5121    0.0077 C   0  0  0  0  0  0  0  0  0  0  0  0
    4.5392    1.4788    0.0030 H   0  0  0  0  0  0  0  0  0  0  0  0
    2.7669   -2.4371   -0.0036 H   0  0  0  0  0  0  0  0  0  0  0  0
    2.3275    2.4906   -0.0032 H   0  0  0  0  0  0  0  0  0  0  0  0
   -0.0116    2.2565    0.0361 H   0  0  0  0  0  0  0  0  0  0  0  0
   -2.7985   -2.4433   -0.0033 H   0  0  0  0  0  0  0  0  0  0  0  0
   -4.8121   -1.0258    0.0025 H   0  0  0  0  0  0  0  0  0  0  0  0
   -2.3515    2.4963   -0.0064 H   0  0  0  0  0  0  0  0  0  0  0  0
    7.0181   -1.2191    0.0122 H   0  0  0  0  0  0  0  0  0  0  0  0
    6.2608    0.1022    0.9105 H   0  0  0  0  0  0  0  0  0  0  0  0
    6.2679    0.0988   -0.8969 H   0  0  0  0  0  0  0  0  0  0  0  0
  1  2  1  0  0  0  0
  1  6  2  0  0  0  0
  1 18  1  0  0  0  0
  2  3  2  0  0  0  0
  2 16  1  0  0  0  0
  3  4  1  0  0  0  0
  3 19  1  0  0  0  0
  4  5  2  0  0  0  0
  4 10  1  0  0  0  0
  5  6  1  0  0  0  0
  5  7  1  0  0  0  0
  6 20  1  0  0  0  0
  7  8  1  0  0  0  0
  7 21  1  0  0  0  0
  8  9  1  0  0  0  0
  8 14  2  0  0  0  0
  9 10  1  0  0  0  0
  9 11  2  0  0  0  0
 11 12  1  0  0  0  0
 11 22  1  0  0  0  0
 12 13  2  0  0  0  0
 12 23  1  0  0  0  0
 13 14  1  0  0  0  0
 13 15  1  0  0  0  0
 14 24  1  0  0  0  0
 16 17  1  0  0  0  0
 17 25  1  0  0  0  0
 17 26  1  0  0  0  0
 17 27  1  0  0  0  0
M  END
$$$$
