
 OpenBabel03142217213D

 30 32  0  0  0  0  0  0  0  0999 V2000
    2.4063   -0.7223   -0.0048 N   0  0  0  0  0  0  0  0  0  0  0  0
    1.1585   -1.3521   -0.0030 C   0  0  0  0  0  0  0  0  0  0  0  0
   -0.0271   -0.7014   -0.0007 C   0  0  0  0  0  0  0  0  0  0  0  0
    0.0178    0.7972    0.0015 C   0  0  0  0  0  0  0  0  0  0  0  0
    1.3387    1.4420    0.0006 C   0  0  0  0  0  0  0  0  0  0  0  0
    2.4371    0.6698   -0.0031 C   0  0  0  0  0  0  0  0  0  0  0  0
   -1.1614    1.4802    0.0026 C   0  0  0  0  0  0  0  0  0  0  0  0
   -2.4355    0.6921   -0.0024 C   0  0  0  0  0  0  0  0  0  0  0  0
   -2.4441   -0.7640   -0.0033 C   0  0  0  0  0  0  0  0  0  0  0  0
   -1.2837   -1.4362   -0.0020 C   0  0  0  0  0  0  0  0  0  0  0  0
   -3.5901    1.3926   -0.0071 C   0  0  0  0  0  0  0  0  0  0  0  0
   -3.6711    2.7876   -0.0068 N   0  0  0  0  0  0  0  0  0  0  0  0
   -2.4806    3.5123    0.0016 C   0  0  0  0  0  0  0  0  0  0  0  0
   -1.2615    2.9469    0.0075 C   0  0  0  0  0  0  0  0  0  0  0  0
   -4.9576    3.4791   -0.0093 C   0  0  0  0  0  0  0  0  0  0  0  0
    3.6513   -1.4861   -0.0175 C   0  0  0  0  0  0  0  0  0  0  0  0
    1.2106   -2.4363   -0.0047 H   0  0  0  0  0  0  0  0  0  0  0  0
    1.4411    2.5170    0.0001 H   0  0  0  0  0  0  0  0  0  0  0  0
    3.4307    1.1073   -0.0061 H   0  0  0  0  0  0  0  0  0  0  0  0
   -3.3914   -1.2918   -0.0057 H   0  0  0  0  0  0  0  0  0  0  0  0
   -1.2703   -2.5206   -0.0033 H   0  0  0  0  0  0  0  0  0  0  0  0
   -4.5552    0.8947   -0.0115 H   0  0  0  0  0  0  0  0  0  0  0  0
   -2.6003    4.5920    0.0045 H   0  0  0  0  0  0  0  0  0  0  0  0
   -0.3832    3.5748    0.0178 H   0  0  0  0  0  0  0  0  0  0  0  0
   -5.7999    2.7789   -0.0135 H   0  0  0  0  0  0  0  0  0  0  0  0
   -5.0461    4.1137   -0.8978 H   0  0  0  0  0  0  0  0  0  0  0  0
   -5.0515    4.1093    0.8817 H   0  0  0  0  0  0  0  0  0  0  0  0
    3.4729   -2.5667   -0.0172 H   0  0  0  0  0  0  0  0  0  0  0  0
    4.2521   -1.2453    0.8664 H   0  0  0  0  0  0  0  0  0  0  0  0
    4.2345   -1.2430   -0.9124 H   0  0  0  0  0  0  0  0  0  0  0  0
  1  2  1  0  0  0  0
  1  6  1  0  0  0  0
  1 16  1  0  0  0  0
  2  3  2  0  0  0  0
  2 17  1  0  0  0  0
  3  4  1  0  0  0  0
  3 10  1  0  0  0  0
  4  5  1  0  0  0  0
  4  7  2  0  0  0  0
  5  6  2  0  0  0  0
  5 18  1  0  0  0  0
  6 19  1  0  0  0  0
  7  8  1  0  0  0  0
  7 14  1  0  0  0  0
  8  9  1  0  0  0  0
  8 11  2  0  0  0  0
  9 10  2  0  0  0  0
  9 20  1  0  0  0  0
 10 21  1  0  0  0  0
 11 12  1  0  0  0  0
 11 22  1  0  0  0  0
 12 13  1  0  0  0  0
 12 15  1  0  0  0  0
 13 14  2  0  0  0  0
 13 23  1  0  0  0  0
 14 24  1  0  0  0  0
 15 25  1  0  0  0  0
 15 26  1  0  0  0  0
 15 27  1  0  0  0  0
 16 28  1  0  0  0  0
 16 29  1  0  0  0  0
 16 30  1  0  0  0  0
M  END
$$$$
