
 OpenBabel03142217213D

 22 23  0  0  0  0  0  0  0  0999 V2000
   -0.5154    1.3798   -0.1131 C   0  0  0  0  0  0  0  0  0  0  0  0
    0.8034    1.1231   -0.1019 C   0  0  0  0  0  0  0  0  0  0  0  0
    1.3369   -0.2320    0.0982 C   0  0  0  0  0  0  0  0  0  0  0  0
    2.6380   -0.4624    0.4607 C   0  0  0  0  0  0  0  0  0  0  0  0
    3.5988    0.6302    0.6726 C   0  0  0  0  0  0  0  0  0  0  0  0
    4.7425    0.4569    1.3550 C   0  0  0  0  0  0  0  0  0  0  0  0
    5.0992   -0.8934    1.8925 C   0  0  0  0  0  0  0  0  0  0  0  0
    6.0128   -1.0524    2.6956 O   0  0  0  0  0  0  0  0  0  0  0  0
    4.3000   -2.0430    1.3635 C   0  0  0  0  0  0  0  0  0  0  0  0
    3.1651   -1.8170    0.6795 C   0  0  0  0  0  0  0  0  0  0  0  0
    4.9257   -3.7745    1.6780 Br  0  0  0  0  0  0  0  0  0  0  0  0
    5.9255    1.8704    1.6583 Br  0  0  0  0  0  0  0  0  0  0  0  0
    0.3744   -1.3254   -0.1008 C   0  0  0  0  0  0  0  0  0  0  0  0
   -0.9532   -1.1204   -0.1123 C   0  0  0  0  0  0  0  0  0  0  0  0
   -1.5015    0.2637    0.0332 C   0  0  0  0  0  0  0  0  0  0  0  0
   -2.6942    0.4724    0.2311 O   0  0  0  0  0  0  0  0  0  0  0  0
   -2.1593   -2.5334   -0.3146 Br  0  0  0  0  0  0  0  0  0  0  0  0
   -1.1717    3.1180   -0.3138 Br  0  0  0  0  0  0  0  0  0  0  0  0
    1.4782    1.9597   -0.2375 H   0  0  0  0  0  0  0  0  0  0  0  0
    3.3951    1.6177    0.2761 H   0  0  0  0  0  0  0  0  0  0  0  0
    2.6348   -2.6779    0.2911 H   0  0  0  0  0  0  0  0  0  0  0  0
    0.7254   -2.3406   -0.2392 H   0  0  0  0  0  0  0  0  0  0  0  0
  1  2  2  0  0  0  0
  1 15  1  0  0  0  0
  1 18  1  0  0  0  0
  2  3  1  0  0  0  0
  2 19  1  0  0  0  0
  3  4  2  0  0  0  0
  3 13  1  0  0  0  0
  4  5  1  0  0  0  0
  4 10  1  0  0  0  0
  5  6  2  0  0  0  0
  5 20  1  0  0  0  0
  6  7  1  0  0  0  0
  6 12  1  0  0  0  0
  7  8  2  0  0  0  0
  7  9  1  0  0  0  0
  9 10  2  0  0  0  0
  9 11  1  0  0  0  0
 10 21  1  0  0  0  0
 13 14  2  0  0  0  0
 13 22  1  0  0  0  0
 14 15  1  0  0  0  0
 14 17  1  0  0  0  0
 15 16  2  0  0  0  0
M  END
$$$$
