
 OpenBabel03142217213D

 35 37  0  0  0  0  0  0  0  0999 V2000
   -0.5917    1.2128    0.1519 C   0  0  0  0  0  0  0  0  0  0  0  0
    0.6357    0.8608   -0.2482 C   0  0  0  0  0  0  0  0  0  0  0  0
    1.0350   -0.4581   -0.3342 N   0  0  0  0  0  0  0  0  0  0  0  0
    0.2323   -1.4717    0.2191 C   0  0  0  0  0  0  0  0  0  0  0  0
   -1.0294   -1.2285    0.6199 C   0  0  0  0  0  0  0  0  0  0  0  0
   -1.6118    0.1622    0.5050 C   0  0  0  0  0  0  0  0  0  0  0  0
    0.8042   -2.8304    0.0865 C   0  0  0  0  0  0  0  0  0  0  0  0
    1.2228   -3.5501    1.1469 C   0  0  0  0  0  0  0  0  0  0  0  0
    2.1314   -4.7501    0.9685 C   0  0  0  0  0  0  0  0  0  0  0  0
    2.3308   -5.1570   -0.4795 C   0  0  0  0  0  0  0  0  0  0  0  0
    1.8399   -4.3914   -1.4583 C   0  0  0  0  0  0  0  0  0  0  0  0
    1.1831   -3.1918   -1.2288 N   0  0  0  0  0  0  0  0  0  0  0  0
    1.3775   -2.0564   -2.1678 C   0  0  0  0  0  0  0  0  0  0  0  0
    2.0161   -0.8898   -1.3596 C   0  0  0  0  0  0  0  0  0  0  0  0
    3.0190   -6.3209   -0.7876 O   0  0  0  0  0  0  0  0  0  0  0  0
    4.2416   -6.4740   -0.0651 C   0  0  0  0  0  0  0  0  0  0  0  0
    5.0054   -7.6431   -0.6592 C   0  0  0  0  0  0  0  0  0  0  0  0
   -0.8814    2.2585    0.1805 H   0  0  0  0  0  0  0  0  0  0  0  0
    1.3849    1.5877   -0.5440 H   0  0  0  0  0  0  0  0  0  0  0  0
   -1.6912   -2.0331    0.9182 H   0  0  0  0  0  0  0  0  0  0  0  0
   -2.0946    0.4316    1.4480 H   0  0  0  0  0  0  0  0  0  0  0  0
   -2.3843    0.1605   -0.2755 H   0  0  0  0  0  0  0  0  0  0  0  0
    1.0524   -3.1965    2.1585 H   0  0  0  0  0  0  0  0  0  0  0  0
    1.7361   -5.5963    1.5427 H   0  0  0  0  0  0  0  0  0  0  0  0
    3.1066   -4.4790    1.3949 H   0  0  0  0  0  0  0  0  0  0  0  0
    1.9643   -4.6481   -2.5035 H   0  0  0  0  0  0  0  0  0  0  0  0
    0.4035   -1.7503   -2.5748 H   0  0  0  0  0  0  0  0  0  0  0  0
    2.0228   -2.3368   -3.0073 H   0  0  0  0  0  0  0  0  0  0  0  0
    2.2816   -0.0692   -2.0322 H   0  0  0  0  0  0  0  0  0  0  0  0
    2.9352   -1.2318   -0.8610 H   0  0  0  0  0  0  0  0  0  0  0  0
    4.0250   -6.6846    0.9866 H   0  0  0  0  0  0  0  0  0  0  0  0
    4.8522   -5.5649   -0.1410 H   0  0  0  0  0  0  0  0  0  0  0  0
    4.3825   -8.5431   -0.6758 H   0  0  0  0  0  0  0  0  0  0  0  0
    5.9104   -7.8489   -0.0805 H   0  0  0  0  0  0  0  0  0  0  0  0
    5.2924   -7.4328   -1.6948 H   0  0  0  0  0  0  0  0  0  0  0  0
  1  2  2  0  0  0  0
  1  6  1  0  0  0  0
  1 18  1  0  0  0  0
  2  3  1  0  0  0  0
  2 19  1  0  0  0  0
  3  4  1  0  0  0  0
  3 14  1  0  0  0  0
  4  5  2  0  0  0  0
  4  7  1  0  0  0  0
  5  6  1  0  0  0  0
  5 20  1  0  0  0  0
  6 21  1  0  0  0  0
  6 22  1  0  0  0  0
  7  8  2  0  0  0  0
  7 12  1  0  0  0  0
  8  9  1  0  0  0  0
  8 23  1  0  0  0  0
  9 10  1  0  0  0  0
  9 24  1  0  0  0  0
  9 25  1  0  0  0  0
 10 11  2  0  0  0  0
 10 15  1  0  0  0  0
 11 12  1  0  0  0  0
 11 26  1  0  0  0  0
 12 13  1  0  0  0  0
 13 14  1  0  0  0  0
 13 27  1  0  0  0  0
 13 28  1  0  0  0  0
 14 29  1  0  0  0  0
 14 30  1  0  0  0  0
 15 16  1  0  0  0  0
 16 17  1  0  0  0  0
 16 31  1  0  0  0  0
 16 32  1  0  0  0  0
 17 33  1  0  0  0  0
 17 34  1  0  0  0  0
 17 35  1  0  0  0  0
M  END
$$$$
