
 OpenBabel03142217213D

 30 32  0  0  0  0  0  0  0  0999 V2000
    3.5810   -1.0537   -0.3139 C   0  0  0  0  0  0  0  0  0  0  0  0
    3.6904    0.3011   -0.6215 C   0  0  0  0  0  0  0  0  0  0  0  0
    2.5887    1.1417   -0.4554 C   0  0  0  0  0  0  0  0  0  0  0  0
    1.3672    0.6255   -0.0073 C   0  0  0  0  0  0  0  0  0  0  0  0
    1.2514   -0.7423    0.3042 C   0  0  0  0  0  0  0  0  0  0  0  0
    2.3727   -1.5692    0.1565 C   0  0  0  0  0  0  0  0  0  0  0  0
    0.0128   -1.3218    0.6329 N   0  0  0  0  0  0  0  0  0  0  0  0
   -1.2392   -0.7690    0.3141 C   0  0  0  0  0  0  0  0  0  0  0  0
   -1.3884    0.5938    0.0023 C   0  0  0  0  0  0  0  0  0  0  0  0
   -0.0234    1.7418    0.1380 S   0  0  0  0  0  0  0  0  0  0  0  0
   -2.6235    1.0778   -0.4470 C   0  0  0  0  0  0  0  0  0  0  0  0
   -3.7059    0.2142   -0.6268 C   0  0  0  0  0  0  0  0  0  0  0  0
   -3.5626   -1.1350   -0.3088 C   0  0  0  0  0  0  0  0  0  0  0  0
   -2.3408   -1.6190    0.1688 C   0  0  0  0  0  0  0  0  0  0  0  0
   -4.8332    0.8034   -1.1300 O   0  0  0  0  0  0  0  0  0  0  0  0
   -5.9310   -0.0574   -1.4301 C   0  0  0  0  0  0  0  0  0  0  0  0
   -7.0429    0.7862   -2.0246 C   0  0  0  0  0  0  0  0  0  0  0  0
    4.4318   -1.7138   -0.4597 H   0  0  0  0  0  0  0  0  0  0  0  0
    4.6231    0.6998   -1.0050 H   0  0  0  0  0  0  0  0  0  0  0  0
    2.6825    2.1961   -0.7027 H   0  0  0  0  0  0  0  0  0  0  0  0
    2.3022   -2.6334    0.3685 H   0  0  0  0  0  0  0  0  0  0  0  0
    0.0257   -2.2787    0.9552 H   0  0  0  0  0  0  0  0  0  0  0  0
   -2.7408    2.1308   -0.6921 H   0  0  0  0  0  0  0  0  0  0  0  0
   -4.3725   -1.8441   -0.4400 H   0  0  0  0  0  0  0  0  0  0  0  0
   -2.2449   -2.6811    0.3796 H   0  0  0  0  0  0  0  0  0  0  0  0
   -6.2947   -0.5338   -0.5132 H   0  0  0  0  0  0  0  0  0  0  0  0
   -5.6317   -0.8196   -2.1597 H   0  0  0  0  0  0  0  0  0  0  0  0
   -7.3332    1.5847   -1.3339 H   0  0  0  0  0  0  0  0  0  0  0  0
   -7.9199    0.1714   -2.2448 H   0  0  0  0  0  0  0  0  0  0  0  0
   -6.7086    1.2687   -2.9490 H   0  0  0  0  0  0  0  0  0  0  0  0
  1  2  1  0  0  0  0
  1  6  2  0  0  0  0
  1 18  1  0  0  0  0
  2  3  2  0  0  0  0
  2 19  1  0  0  0  0
  3  4  1  0  0  0  0
  3 20  1  0  0  0  0
  4  5  2  0  0  0  0
  4 10  1  0  0  0  0
  5  6  1  0  0  0  0
  5  7  1  0  0  0  0
  6 21  1  0  0  0  0
  7  8  1  0  0  0  0
  7 22  1  0  0  0  0
  8  9  1  0  0  0  0
  8 14  2  0  0  0  0
  9 10  1  0  0  0  0
  9 11  2  0  0  0  0
 11 12  1  0  0  0  0
 11 23  1  0  0  0  0
 12 13  2  0  0  0  0
 12 15  1  0  0  0  0
 13 14  1  0  0  0  0
 13 24  1  0  0  0  0
 14 25  1  0  0  0  0
 15 16  1  0  0  0  0
 16 17  1  0  0  0  0
 16 26  1  0  0  0  0
 16 27  1  0  0  0  0
 17 28  1  0  0  0  0
 17 29  1  0  0  0  0
 17 30  1  0  0  0  0
M  END
$$$$
