
 OpenBabel03142217213D

 31 33  0  0  0  0  0  0  0  0999 V2000
   -0.6773    1.1991    0.4719 C   0  0  0  0  0  0  0  0  0  0  0  0
    0.5514    0.9154    0.0230 C   0  0  0  0  0  0  0  0  0  0  0  0
    0.9782   -0.3831   -0.2263 N   0  0  0  0  0  0  0  0  0  0  0  0
    0.2101   -1.4636    0.2591 C   0  0  0  0  0  0  0  0  0  0  0  0
   -1.0456   -1.2731    0.7173 C   0  0  0  0  0  0  0  0  0  0  0  0
   -1.6668    0.1027    0.7239 C   0  0  0  0  0  0  0  0  0  0  0  0
    0.7867   -2.8033    0.0762 C   0  0  0  0  0  0  0  0  0  0  0  0
    1.3946   -3.4178    1.1135 C   0  0  0  0  0  0  0  0  0  0  0  0
    2.2011   -4.6750    0.9327 C   0  0  0  0  0  0  0  0  0  0  0  0
    2.1607   -5.2021   -0.4716 C   0  0  0  0  0  0  0  0  0  0  0  0
    1.5206   -4.5367   -1.4400 C   0  0  0  0  0  0  0  0  0  0  0  0
    0.8673   -3.3246   -1.2372 N   0  0  0  0  0  0  0  0  0  0  0  0
    0.2918   -2.5902   -2.3846 C   0  0  0  0  0  0  0  0  0  0  0  0
    0.7694   -1.1343   -2.5346 C   0  0  0  0  0  0  0  0  0  0  0  0
    1.7512   -0.6375   -1.4614 C   0  0  0  0  0  0  0  0  0  0  0  0
   -0.9808    2.2341    0.6080 H   0  0  0  0  0  0  0  0  0  0  0  0
    1.2810    1.6868   -0.2143 H   0  0  0  0  0  0  0  0  0  0  0  0
   -1.6679   -2.1139    0.9970 H   0  0  0  0  0  0  0  0  0  0  0  0
   -2.1599    0.2745    1.6843 H   0  0  0  0  0  0  0  0  0  0  0  0
   -2.4375    0.1465   -0.0574 H   0  0  0  0  0  0  0  0  0  0  0  0
    1.3961   -2.9652    2.1010 H   0  0  0  0  0  0  0  0  0  0  0  0
    1.8355   -5.4445    1.6184 H   0  0  0  0  0  0  0  0  0  0  0  0
    3.2460   -4.4652    1.1961 H   0  0  0  0  0  0  0  0  0  0  0  0
    2.6743   -6.1334   -0.6930 H   0  0  0  0  0  0  0  0  0  0  0  0
    1.4979   -4.9149   -2.4586 H   0  0  0  0  0  0  0  0  0  0  0  0
   -0.8046   -2.6226   -2.3110 H   0  0  0  0  0  0  0  0  0  0  0  0
    0.5329   -3.1098   -3.3195 H   0  0  0  0  0  0  0  0  0  0  0  0
   -0.1230   -0.4907   -2.5358 H   0  0  0  0  0  0  0  0  0  0  0  0
    1.2172   -1.0055   -3.5240 H   0  0  0  0  0  0  0  0  0  0  0  0
    2.2241    0.2900   -1.8054 H   0  0  0  0  0  0  0  0  0  0  0  0
    2.5706   -1.3445   -1.2895 H   0  0  0  0  0  0  0  0  0  0  0  0
  1  2  2  0  0  0  0
  1  6  1  0  0  0  0
  1 16  1  0  0  0  0
  2  3  1  0  0  0  0
  2 17  1  0  0  0  0
  3  4  1  0  0  0  0
  3 15  1  0  0  0  0
  4  5  2  0  0  0  0
  4  7  1  0  0  0  0
  5  6  1  0  0  0  0
  5 18  1  0  0  0  0
  6 19  1  0  0  0  0
  6 20  1  0  0  0  0
  7  8  2  0  0  0  0
  7 12  1  0  0  0  0
  8  9  1  0  0  0  0
  8 21  1  0  0  0  0
  9 10  1  0  0  0  0
  9 22  1  0  0  0  0
  9 23  1  0  0  0  0
 10 11  2  0  0  0  0
 10 24  1  0  0  0  0
 11 12  1  0  0  0  0
 11 25  1  0  0  0  0
 12 13  1  0  0  0  0
 13 14  1  0  0  0  0
 13 26  1  0  0  0  0
 13 27  1  0  0  0  0
 14 15  1  0  0  0  0
 14 28  1  0  0  0  0
 14 29  1  0  0  0  0
 15 30  1  0  0  0  0
 15 31  1  0  0  0  0
M  END
$$$$
