
 OpenBabel03142217213D

 29 31  0  0  0  0  0  0  0  0999 V2000
    0.9922   -0.0423    0.1539 C   0  0  0  0  0  0  0  0  0  0  0  0
    2.4672    0.0237    0.0987 N   0  0  0  0  0  0  0  0  0  0  0  0
    3.1454    1.2343    0.1928 C   0  0  0  0  0  0  0  0  0  0  0  0
    4.4852    1.2990    0.2766 C   0  0  0  0  0  0  0  0  0  0  0  0
    5.3040    0.0333    0.3514 C   0  0  0  0  0  0  0  0  0  0  0  0
    4.5294   -1.1748   -0.1186 C   0  0  0  0  0  0  0  0  0  0  0  0
    3.1877   -1.1260   -0.2620 C   0  0  0  0  0  0  0  0  0  0  0  0
    2.3943   -2.2523   -0.7370 C   0  0  0  0  0  0  0  0  0  0  0  0
    2.5939   -2.8524   -1.9218 C   0  0  0  0  0  0  0  0  0  0  0  0
    1.6426   -3.9256   -2.3930 C   0  0  0  0  0  0  0  0  0  0  0  0
    0.8560   -4.5261   -1.2592 C   0  0  0  0  0  0  0  0  0  0  0  0
    0.7028   -3.8365   -0.1241 C   0  0  0  0  0  0  0  0  0  0  0  0
    1.2818   -2.5832    0.0520 N   0  0  0  0  0  0  0  0  0  0  0  0
    0.4085   -1.4551    0.4314 C   0  0  0  0  0  0  0  0  0  0  0  0
    5.2031    2.6388    0.2626 C   0  0  0  0  0  0  0  0  0  0  0  0
    5.7986    3.7502    0.2510 N   0  0  0  0  0  0  0  0  0  0  0  0
    0.5937    0.3343   -0.7963 H   0  0  0  0  0  0  0  0  0  0  0  0
    0.6227    0.6302    0.9378 H   0  0  0  0  0  0  0  0  0  0  0  0
    2.5154    2.1179    0.1550 H   0  0  0  0  0  0  0  0  0  0  0  0
    5.6381   -0.1248    1.3850 H   0  0  0  0  0  0  0  0  0  0  0  0
    6.2017    0.1376   -0.2707 H   0  0  0  0  0  0  0  0  0  0  0  0
    5.0851   -2.0847   -0.3158 H   0  0  0  0  0  0  0  0  0  0  0  0
    3.3726   -2.5206   -2.6000 H   0  0  0  0  0  0  0  0  0  0  0  0
    2.2048   -4.7074   -2.9069 H   0  0  0  0  0  0  0  0  0  0  0  0
    0.9394   -3.4887   -3.1147 H   0  0  0  0  0  0  0  0  0  0  0  0
    0.3820   -5.4993   -1.3911 H   0  0  0  0  0  0  0  0  0  0  0  0
    0.1306   -4.1898    0.7242 H   0  0  0  0  0  0  0  0  0  0  0  0
    0.1141   -1.5551    1.4795 H   0  0  0  0  0  0  0  0  0  0  0  0
   -0.5145   -1.5300   -0.1631 H   0  0  0  0  0  0  0  0  0  0  0  0
  1  2  1  0  0  0  0
  1 14  1  0  0  0  0
  1 17  1  0  0  0  0
  1 18  1  0  0  0  0
  2  3  1  0  0  0  0
  2  7  1  0  0  0  0
  3  4  2  0  0  0  0
  3 19  1  0  0  0  0
  4  5  1  0  0  0  0
  4 15  1  0  0  0  0
  5  6  1  0  0  0  0
  5 20  1  0  0  0  0
  5 21  1  0  0  0  0
  6  7  2  0  0  0  0
  6 22  1  0  0  0  0
  7  8  1  0  0  0  0
  8  9  2  0  0  0  0
  8 13  1  0  0  0  0
  9 10  1  0  0  0  0
  9 23  1  0  0  0  0
 10 11  1  0  0  0  0
 10 24  1  0  0  0  0
 10 25  1  0  0  0  0
 11 12  2  0  0  0  0
 11 26  1  0  0  0  0
 12 13  1  0  0  0  0
 12 27  1  0  0  0  0
 13 14  1  0  0  0  0
 14 28  1  0  0  0  0
 14 29  1  0  0  0  0
 15 16  3  0  0  0  0
M  END
$$$$
