
 OpenBabel03142217213D

 23 25  0  0  0  0  0  0  0  0999 V2000
    3.6802    0.8270    0.0014 C   0  0  0  0  0  0  0  0  0  0  0  0
    3.8127   -0.5572    0.0007 C   0  0  0  0  0  0  0  0  0  0  0  0
    2.6733   -1.3606   -0.0006 C   0  0  0  0  0  0  0  0  0  0  0  0
    1.3922   -0.7868   -0.0004 C   0  0  0  0  0  0  0  0  0  0  0  0
    1.2513    0.6108    0.0012 C   0  0  0  0  0  0  0  0  0  0  0  0
    2.4092    1.4061    0.0012 C   0  0  0  0  0  0  0  0  0  0  0  0
   -0.0074    1.2356   -0.0026 N   0  0  0  0  0  0  0  0  0  0  0  0
   -1.2629    0.6073    0.0012 C   0  0  0  0  0  0  0  0  0  0  0  0
   -1.3990   -0.7928   -0.0006 C   0  0  0  0  0  0  0  0  0  0  0  0
   -0.0004   -1.9018   -0.0027 S   0  0  0  0  0  0  0  0  0  0  0  0
   -2.6754   -1.3749   -0.0002 C   0  0  0  0  0  0  0  0  0  0  0  0
   -3.8107   -0.5704    0.0005 C   0  0  0  0  0  0  0  0  0  0  0  0
   -3.6915    0.8150    0.0010 C   0  0  0  0  0  0  0  0  0  0  0  0
   -2.4226    1.3996    0.0008 C   0  0  0  0  0  0  0  0  0  0  0  0
   -5.3714   -1.2946    0.0006 Cl  0  0  0  0  0  0  0  0  0  0  0  0
    4.5659    1.4575    0.0018 H   0  0  0  0  0  0  0  0  0  0  0  0
    4.7987   -1.0138    0.0003 H   0  0  0  0  0  0  0  0  0  0  0  0
    2.7899   -2.4419   -0.0016 H   0  0  0  0  0  0  0  0  0  0  0  0
    2.3304    2.4901    0.0010 H   0  0  0  0  0  0  0  0  0  0  0  0
   -0.0055    2.2464    0.0104 H   0  0  0  0  0  0  0  0  0  0  0  0
   -2.7821   -2.4565   -0.0010 H   0  0  0  0  0  0  0  0  0  0  0  0
   -4.5774    1.4443    0.0013 H   0  0  0  0  0  0  0  0  0  0  0  0
   -2.3473    2.4842    0.0007 H   0  0  0  0  0  0  0  0  0  0  0  0
  1  2  1  0  0  0  0
  1  6  2  0  0  0  0
  1 16  1  0  0  0  0
  2  3  2  0  0  0  0
  2 17  1  0  0  0  0
  3  4  1  0  0  0  0
  3 18  1  0  0  0  0
  4  5  2  0  0  0  0
  4 10  1  0  0  0  0
  5  6  1  0  0  0  0
  5  7  1  0  0  0  0
  6 19  1  0  0  0  0
  7  8  1  0  0  0  0
  7 20  1  0  0  0  0
  8  9  1  0  0  0  0
  8 14  2  0  0  0  0
  9 10  1  0  0  0  0
  9 11  2  0  0  0  0
 11 12  1  0  0  0  0
 11 21  1  0  0  0  0
 12 13  2  0  0  0  0
 12 15  1  0  0  0  0
 13 14  1  0  0  0  0
 13 22  1  0  0  0  0
 14 23  1  0  0  0  0
M  END
$$$$
