
 OpenBabel03162211513D

 41 44  0  0  0  0  0  0  0  0999 V2000
    3.5349   -1.0406   -0.5389 C   0  0  0  0  0  0  0  0  0  0  0  0
    3.6453    0.3429   -0.6484 C   0  0  0  0  0  0  0  0  0  0  0  0
    2.5588    1.1511   -0.3263 C   0  0  0  0  0  0  0  0  0  0  0  0
    1.3459    0.5781    0.0850 C   0  0  0  0  0  0  0  0  0  0  0  0
    1.2201   -0.8241    0.1955 C   0  0  0  0  0  0  0  0  0  0  0  0
    2.3341   -1.6161   -0.1118 C   0  0  0  0  0  0  0  0  0  0  0  0
   -0.0299   -1.4610    0.4799 N   0  0  0  0  0  0  0  0  0  0  0  0
   -1.2565   -0.8124    0.1424 C   0  0  0  0  0  0  0  0  0  0  0  0
   -1.3802    0.5877    0.0684 C   0  0  0  0  0  0  0  0  0  0  0  0
   -0.0164    1.6722    0.4449 S   0  0  0  0  0  0  0  0  0  0  0  0
   -2.5943    1.1707   -0.3275 C   0  0  0  0  0  0  0  0  0  0  0  0
   -3.6937    0.3764   -0.6483 C   0  0  0  0  0  0  0  0  0  0  0  0
   -3.5781   -1.0066   -0.6080 C   0  0  0  0  0  0  0  0  0  0  0  0
   -2.3617   -1.5882   -0.2509 C   0  0  0  0  0  0  0  0  0  0  0  0
   -0.0282   -2.0640    1.8631 C   0  0  0  0  0  0  0  0  0  0  0  0
   -1.0366   -3.2376    1.9940 C   0  0  0  0  0  0  0  0  0  0  0  0
   -1.0650   -4.0353    3.2438 N   0  0  0  0  0  0  0  0  0  0  0  0
   -2.0397   -5.1435    3.0876 C   0  0  0  0  0  0  0  0  0  0  0  0
   -3.3944   -4.5330    3.4033 C   0  0  0  0  0  0  0  0  0  0  0  0
   -3.0765   -3.5701    4.5298 C   0  0  0  0  0  0  0  0  0  0  0  0
   -1.5849   -3.2612    4.3882 C   0  0  0  0  0  0  0  0  0  0  0  0
    4.3752   -1.6752   -0.8104 H   0  0  0  0  0  0  0  0  0  0  0  0
    4.5717    0.7921   -0.9992 H   0  0  0  0  0  0  0  0  0  0  0  0
    2.6514    2.2316   -0.4220 H   0  0  0  0  0  0  0  0  0  0  0  0
    2.2531   -2.7011   -0.0707 H   0  0  0  0  0  0  0  0  0  0  0  0
   -2.6837    2.2522   -0.4052 H   0  0  0  0  0  0  0  0  0  0  0  0
   -4.6284    0.8364   -0.9569 H   0  0  0  0  0  0  0  0  0  0  0  0
   -4.4212   -1.6370   -0.8756 H   0  0  0  0  0  0  0  0  0  0  0  0
   -2.2760   -2.6700   -0.3074 H   0  0  0  0  0  0  0  0  0  0  0  0
   -0.2387   -1.2838    2.6058 H   0  0  0  0  0  0  0  0  0  0  0  0
    0.9662   -2.4650    2.1020 H   0  0  0  0  0  0  0  0  0  0  0  0
   -0.8141   -3.9253    1.1666 H   0  0  0  0  0  0  0  0  0  0  0  0
   -2.0418   -2.8452    1.8429 H   0  0  0  0  0  0  0  0  0  0  0  0
   -1.8075   -5.9293    3.8169 H   0  0  0  0  0  0  0  0  0  0  0  0
   -2.0172   -5.6087    2.0958 H   0  0  0  0  0  0  0  0  0  0  0  0
   -4.1411   -5.2804    3.6903 H   0  0  0  0  0  0  0  0  0  0  0  0
   -3.7942   -3.9857    2.5412 H   0  0  0  0  0  0  0  0  0  0  0  0
   -3.2711   -4.0502    5.4962 H   0  0  0  0  0  0  0  0  0  0  0  0
   -3.6937   -2.6682    4.4697 H   0  0  0  0  0  0  0  0  0  0  0  0
   -1.0657   -3.5913    5.2959 H   0  0  0  0  0  0  0  0  0  0  0  0
   -1.4079   -2.1845    4.3059 H   0  0  0  0  0  0  0  0  0  0  0  0
  1  2  1  0  0  0  0
  1  6  2  0  0  0  0
  1 22  1  0  0  0  0
  2  3  2  0  0  0  0
  2 23  1  0  0  0  0
  3  4  1  0  0  0  0
  3 24  1  0  0  0  0
  4  5  2  0  0  0  0
  4 10  1  0  0  0  0
  5  6  1  0  0  0  0
  5  7  1  0  0  0  0
  6 25  1  0  0  0  0
  7  8  1  0  0  0  0
  7 15  1  0  0  0  0
  8  9  1  0  0  0  0
  8 14  2  0  0  0  0
  9 10  1  0  0  0  0
  9 11  2  0  0  0  0
 11 12  1  0  0  0  0
 11 26  1  0  0  0  0
 12 13  2  0  0  0  0
 12 27  1  0  0  0  0
 13 14  1  0  0  0  0
 13 28  1  0  0  0  0
 14 29  1  0  0  0  0
 15 16  1  0  0  0  0
 15 30  1  0  0  0  0
 15 31  1  0  0  0  0
 16 17  1  0  0  0  0
 16 32  1  0  0  0  0
 16 33  1  0  0  0  0
 17 18  1  0  0  0  0
 17 21  1  0  0  0  0
 18 19  1  0  0  0  0
 18 34  1  0  0  0  0
 18 35  1  0  0  0  0
 19 20  1  0  0  0  0
 19 36  1  0  0  0  0
 19 37  1  0  0  0  0
 20 21  1  0  0  0  0
 20 38  1  0  0  0  0
 20 39  1  0  0  0  0
 21 40  1  0  0  0  0
 21 41  1  0  0  0  0
M  END
$$$$
