
 OpenBabel03182211373D

 37 38  0  0  1  0  0  0  0  0999 V2000
    2.4509   -2.6578    0.8917 C   0  0  0  0  0  0  0  0  0  0  0  0
    3.4289   -1.7427    1.3640 O   0  0  0  0  0  0  0  0  0  0  0  0
    3.0131   -0.3791    1.2481 C   0  0  1  0  0  0  0  0  0  0  0  0
    1.8921   -0.1513    2.1189 O   0  0  0  0  0  0  0  0  0  0  0  0
    4.1940    0.4845    1.6791 C   0  0  2  0  0  0  0  0  0  0  0  0
    3.7686    1.9135    1.6915 C   0  0  2  0  0  0  0  0  0  0  0  0
    5.0086    2.5566    1.8856 O   0  0  0  0  0  0  0  0  0  0  0  0
    5.8814    1.7878    1.1420 C   0  0  0  0  0  0  0  0  0  0  0  0
    5.3150    0.5725    0.8196 O   0  0  0  0  0  0  0  0  0  0  0  0
    6.9921    2.1442    0.8012 O   0  0  0  0  0  0  0  0  0  0  0  0
    2.6855    2.1253    2.7327 C   0  0  1  0  0  0  0  0  0  0  0  0
    1.4913    1.2173    2.3436 C   0  0  1  0  0  0  0  0  0  0  0  0
    0.6759    1.7464    1.1484 C   0  0  0  0  0  0  0  0  0  0  0  0
    0.0978    3.0205    1.4759 O   0  0  0  0  0  0  0  0  0  0  0  0
    0.4538    4.0797    0.7016 C   0  0  0  0  0  0  0  0  0  0  0  0
   -0.1983    5.3399    1.1881 C   0  0  0  0  0  0  0  0  0  0  0  0
    1.2348    4.0275   -0.2372 O   0  0  0  0  0  0  0  0  0  0  0  0
    3.1930    1.6847    4.0189 O   0  0  0  0  0  0  0  0  0  0  0  0
    3.2093    2.5922    5.0284 C   0  0  0  0  0  0  0  0  0  0  0  0
    3.8514    2.0106    6.2524 C   0  0  0  0  0  0  0  0  0  0  0  0
    2.7896    3.7388    4.9541 O   0  0  0  0  0  0  0  0  0  0  0  0
    2.8316   -3.6724    1.0469 H   0  0  0  0  0  0  0  0  0  0  0  0
    2.2760   -2.5115   -0.1772 H   0  0  0  0  0  0  0  0  0  0  0  0
    1.5140   -2.5569    1.4473 H   0  0  0  0  0  0  0  0  0  0  0  0
    2.7363   -0.1804    0.2051 H   0  0  0  0  0  0  0  0  0  0  0  0
    4.5691    0.1323    2.6516 H   0  0  0  0  0  0  0  0  0  0  0  0
    3.4010    2.2452    0.7115 H   0  0  0  0  0  0  0  0  0  0  0  0
    2.3954    3.1793    2.7680 H   0  0  0  0  0  0  0  0  0  0  0  0
    0.8153    1.1825    3.2067 H   0  0  0  0  0  0  0  0  0  0  0  0
    1.2738    1.7685    0.2310 H   0  0  0  0  0  0  0  0  0  0  0  0
   -0.1503    1.0569    0.9391 H   0  0  0  0  0  0  0  0  0  0  0  0
   -0.9368    5.1213    1.9655 H   0  0  0  0  0  0  0  0  0  0  0  0
   -0.7144    5.8287    0.3581 H   0  0  0  0  0  0  0  0  0  0  0  0
    0.5645    6.0003    1.6072 H   0  0  0  0  0  0  0  0  0  0  0  0
    3.8586    0.9170    6.2055 H   0  0  0  0  0  0  0  0  0  0  0  0
    3.2743    2.3012    7.1349 H   0  0  0  0  0  0  0  0  0  0  0  0
    4.8779    2.3738    6.3348 H   0  0  0  0  0  0  0  0  0  0  0  0
  1  2  1  0  0  0  0
  1 22  1  0  0  0  0
  1 23  1  0  0  0  0
  1 24  1  0  0  0  0
  3  4  1  0  0  0  0
  3  5  1  0  0  0  0
  3  2  1  0  0  0  0
  3 25  1  6  0  0  0
  4 12  1  0  0  0  0
  5  6  1  0  0  0  0
  5  9  1  0  0  0  0
  5 26  1  1  0  0  0
  6  7  1  0  0  0  0
  6 11  1  0  0  0  0
  6 27  1  6  0  0  0
  7  8  1  0  0  0  0
  8  9  1  0  0  0  0
  8 10  2  0  0  0  0
 11 12  1  0  0  0  0
 11 18  1  0  0  0  0
 11 28  1  1  0  0  0
 12 13  1  0  0  0  0
 12 29  1  1  0  0  0
 13 14  1  0  0  0  0
 13 30  1  0  0  0  0
 13 31  1  0  0  0  0
 14 15  1  0  0  0  0
 15 16  1  0  0  0  0
 15 17  2  0  0  0  0
 16 32  1  0  0  0  0
 16 33  1  0  0  0  0
 16 34  1  0  0  0  0
 18 19  1  0  0  0  0
 19 20  1  0  0  0  0
 19 21  2  0  0  0  0
 20 35  1  0  0  0  0
 20 36  1  0  0  0  0
 20 37  1  0  0  0  0
M  END
$$$$
