
 OpenBabel03182211373D

 63 64  0  0  1  0  0  0  0  0999 V2000
    1.2928   -0.2725   -0.7887 O   0  0  0  0  0  0  0  0  0  0  0  0
    2.2991   -0.2443   -0.0944 C   0  0  0  0  0  0  0  0  0  0  0  0
    2.7716    0.9231    0.4253 O   0  0  0  0  0  0  0  0  0  0  0  0
    3.9139    1.0320    1.2981 C   0  0  0  0  0  0  0  0  0  0  0  0
    4.8181   -0.1771    1.2366 C   0  0  2  0  0  0  0  0  0  0  0  0
    3.9142   -1.3968    1.2726 C   0  0  2  0  0  0  0  0  0  0  0  0
    4.7777   -2.6750    1.2584 C   0  0  2  0  0  0  0  0  0  0  0  0
    3.9426   -3.8447    1.3728 O   0  0  0  0  0  0  0  0  0  0  0  0
    3.9879   -4.7079    0.3180 C   0  0  0  0  0  0  0  0  0  0  0  0
    3.0807   -5.6996    0.5245 O   0  0  0  0  0  0  0  0  0  0  0  0
    2.6332   -6.3682   -0.6654 C   0  0  0  0  0  0  0  0  0  0  0  0
    3.0162   -7.8636   -0.7474 C   0  0  0  0  0  0  0  0  0  0  0  0
    2.4348   -8.6480    0.4382 C   0  0  0  0  0  0  0  0  0  0  0  0
    2.4291   -8.4285   -2.0566 C   0  0  0  0  0  0  0  0  0  0  0  0
    4.5410   -8.0490   -0.7700 C   0  0  0  0  0  0  0  0  0  0  0  0
    4.6928   -4.5872   -0.6716 O   0  0  0  0  0  0  0  0  0  0  0  0
    5.7433   -2.6052    2.4521 C   0  0  1  0  0  0  0  0  0  0  0  0
    6.5317   -3.8086    2.5781 O   0  0  0  0  0  0  0  0  0  0  0  0
    6.0535   -4.7308    3.4659 C   0  0  0  0  0  0  0  0  0  0  0  0
    6.9365   -5.7621    3.5544 O   0  0  0  0  0  0  0  0  0  0  0  0
    6.7558   -6.6590    4.6712 C   0  0  0  0  0  0  0  0  0  0  0  0
    6.5680   -8.1351    4.2481 C   0  0  0  0  0  0  0  0  0  0  0  0
    7.7629   -8.6240    3.4138 C   0  0  0  0  0  0  0  0  0  0  0  0
    6.4613   -9.0117    5.5147 C   0  0  0  0  0  0  0  0  0  0  0  0
    5.2804   -8.3010    3.4296 C   0  0  0  0  0  0  0  0  0  0  0  0
    5.0317   -4.6091    4.1224 O   0  0  0  0  0  0  0  0  0  0  0  0
    6.6191   -1.3323    2.2735 C   0  0  1  0  0  0  0  0  0  0  0  0
    7.3402   -1.2496    1.0469 O   0  0  0  0  0  0  0  0  0  0  0  0
    8.3449   -2.2304    0.8668 C   0  0  0  0  0  0  0  0  0  0  0  0
    5.7479   -0.1777    2.3256 O   0  0  0  0  0  0  0  0  0  0  0  0
    3.0280   -1.3656    0.1502 O   0  0  0  0  0  0  0  0  0  0  0  0
    3.5415    1.2139    2.3095 H   0  0  0  0  0  0  0  0  0  0  0  0
    4.4710    1.9311    1.0086 H   0  0  0  0  0  0  0  0  0  0  0  0
    5.3523   -0.1317    0.2778 H   0  0  0  0  0  0  0  0  0  0  0  0
    3.2953   -1.4071    2.1791 H   0  0  0  0  0  0  0  0  0  0  0  0
    5.3499   -2.7068    0.3241 H   0  0  0  0  0  0  0  0  0  0  0  0
    2.9628   -5.8439   -1.5709 H   0  0  0  0  0  0  0  0  0  0  0  0
    1.5404   -6.2779   -0.6551 H   0  0  0  0  0  0  0  0  0  0  0  0
    1.3492   -8.5162    0.5050 H   0  0  0  0  0  0  0  0  0  0  0  0
    2.8722   -8.3274    1.3891 H   0  0  0  0  0  0  0  0  0  0  0  0
    2.6292   -9.7221    0.3306 H   0  0  0  0  0  0  0  0  0  0  0  0
    1.3448   -8.2635   -2.1028 H   0  0  0  0  0  0  0  0  0  0  0  0
    2.6052   -9.5061   -2.1447 H   0  0  0  0  0  0  0  0  0  0  0  0
    2.8753   -7.9424   -2.9294 H   0  0  0  0  0  0  0  0  0  0  0  0
    4.9992   -7.7644    0.1793 H   0  0  0  0  0  0  0  0  0  0  0  0
    5.0012   -7.4478   -1.5618 H   0  0  0  0  0  0  0  0  0  0  0  0
    4.8034   -9.0983   -0.9620 H   0  0  0  0  0  0  0  0  0  0  0  0
    5.1597   -2.4518    3.3716 H   0  0  0  0  0  0  0  0  0  0  0  0
    5.9236   -6.3499    5.3150 H   0  0  0  0  0  0  0  0  0  0  0  0
    7.6629   -6.5691    5.2811 H   0  0  0  0  0  0  0  0  0  0  0  0
    8.7132   -8.3975    3.9141 H   0  0  0  0  0  0  0  0  0  0  0  0
    7.7830   -8.1541    2.4261 H   0  0  0  0  0  0  0  0  0  0  0  0
    7.7222   -9.7100    3.2649 H   0  0  0  0  0  0  0  0  0  0  0  0
    7.4225   -9.0760    6.0369 H   0  0  0  0  0  0  0  0  0  0  0  0
    6.1524  -10.0342    5.2663 H   0  0  0  0  0  0  0  0  0  0  0  0
    5.7245   -8.6082    6.2183 H   0  0  0  0  0  0  0  0  0  0  0  0
    5.3104   -7.7024    2.5145 H   0  0  0  0  0  0  0  0  0  0  0  0
    4.4027   -7.9897    4.0067 H   0  0  0  0  0  0  0  0  0  0  0  0
    5.1294   -9.3470    3.1368 H   0  0  0  0  0  0  0  0  0  0  0  0
    7.3257   -1.2377    3.1059 H   0  0  0  0  0  0  0  0  0  0  0  0
    8.9651   -1.9190    0.0214 H   0  0  0  0  0  0  0  0  0  0  0  0
    7.8944   -3.1904    0.6058 H   0  0  0  0  0  0  0  0  0  0  0  0
    8.9776   -2.3204    1.7530 H   0  0  0  0  0  0  0  0  0  0  0  0
  1  2  2  0  0  0  0
  2  3  1  0  0  0  0
  2 31  1  0  0  0  0
  3  4  1  0  0  0  0
  4  5  1  0  0  0  0
  4 32  1  0  0  0  0
  4 33  1  0  0  0  0
  5  6  1  0  0  0  0
  5 30  1  0  0  0  0
  5 34  1  6  0  0  0
  6  7  1  0  0  0  0
  6 31  1  0  0  0  0
  6 35  1  1  0  0  0
  7  8  1  0  0  0  0
  7 17  1  0  0  0  0
  7 36  1  6  0  0  0
  8  9  1  0  0  0  0
  9 10  1  0  0  0  0
  9 16  2  0  0  0  0
 10 11  1  0  0  0  0
 11 12  1  0  0  0  0
 11 37  1  0  0  0  0
 11 38  1  0  0  0  0
 12 13  1  0  0  0  0
 12 14  1  0  0  0  0
 12 15  1  0  0  0  0
 13 39  1  0  0  0  0
 13 40  1  0  0  0  0
 13 41  1  0  0  0  0
 14 42  1  0  0  0  0
 14 43  1  0  0  0  0
 14 44  1  0  0  0  0
 15 45  1  0  0  0  0
 15 46  1  0  0  0  0
 15 47  1  0  0  0  0
 17 27  1  0  0  0  0
 17 18  1  0  0  0  0
 17 48  1  1  0  0  0
 18 19  1  0  0  0  0
 19 20  1  0  0  0  0
 19 26  2  0  0  0  0
 20 21  1  0  0  0  0
 21 22  1  0  0  0  0
 21 49  1  0  0  0  0
 21 50  1  0  0  0  0
 22 23  1  0  0  0  0
 22 24  1  0  0  0  0
 22 25  1  0  0  0  0
 23 51  1  0  0  0  0
 23 52  1  0  0  0  0
 23 53  1  0  0  0  0
 24 54  1  0  0  0  0
 24 55  1  0  0  0  0
 24 56  1  0  0  0  0
 25 57  1  0  0  0  0
 25 58  1  0  0  0  0
 25 59  1  0  0  0  0
 27 28  1  0  0  0  0
 27 30  1  0  0  0  0
 27 60  1  1  0  0  0
 28 29  1  0  0  0  0
 29 61  1  0  0  0  0
 29 62  1  0  0  0  0
 29 63  1  0  0  0  0
M  END
$$$$
