
 OpenBabel03182211373D

 45 46  0  0  1  0  0  0  0  0999 V2000
    1.2194   -0.2249   -0.7251 O   0  0  0  0  0  0  0  0  0  0  0  0
    2.2708   -0.1813   -0.1063 C   0  0  0  0  0  0  0  0  0  0  0  0
    2.8035    0.9994    0.3138 O   0  0  0  0  0  0  0  0  0  0  0  0
    3.9475    1.1008    1.1709 C   0  0  0  0  0  0  0  0  0  0  0  0
    4.8607   -0.0978    1.0803 C   0  0  2  0  0  0  0  0  0  0  0  0
    3.9724   -1.3141    1.2004 C   0  0  2  0  0  0  0  0  0  0  0  0
    4.8410   -2.5898    1.1601 C   0  0  2  0  0  0  0  0  0  0  0  0
    4.0180   -3.7508    1.3843 O   0  0  0  0  0  0  0  0  0  0  0  0
    3.3768   -4.2494    0.2959 C   0  0  0  0  0  0  0  0  0  0  0  0
    2.5007   -5.1812    0.7363 O   0  0  0  0  0  0  0  0  0  0  0  0
    1.3785   -5.4161   -0.1210 C   0  0  0  0  0  0  0  0  0  0  0  0
    0.2608   -4.4940    0.3338 C   0  0  0  0  0  0  0  0  0  0  0  0
    3.5131   -3.8702   -0.8571 O   0  0  0  0  0  0  0  0  0  0  0  0
    5.8725   -2.4784    2.3033 C   0  0  1  0  0  0  0  0  0  0  0  0
    6.7340   -3.6312    2.3515 O   0  0  0  0  0  0  0  0  0  0  0  0
    6.3082   -4.6579    3.1323 C   0  0  0  0  0  0  0  0  0  0  0  0
    7.2144   -5.6602    3.0348 O   0  0  0  0  0  0  0  0  0  0  0  0
    6.8717   -6.8846    3.6980 C   0  0  0  0  0  0  0  0  0  0  0  0
    6.1049   -7.7732    2.7366 C   0  0  0  0  0  0  0  0  0  0  0  0
    5.2902   -4.6731    3.8078 O   0  0  0  0  0  0  0  0  0  0  0  0
    6.7072   -1.1931    2.0877 C   0  0  1  0  0  0  0  0  0  0  0  0
    7.4057   -1.2534    0.8421 O   0  0  0  0  0  0  0  0  0  0  0  0
    8.2734   -0.1427    0.6473 C   0  0  0  0  0  0  0  0  0  0  0  0
    5.8380   -0.0514    2.1215 O   0  0  0  0  0  0  0  0  0  0  0  0
    2.9904   -1.3026    0.1634 O   0  0  0  0  0  0  0  0  0  0  0  0
    3.5902    1.2604    2.1942 H   0  0  0  0  0  0  0  0  0  0  0  0
    4.4986    2.0070    0.8945 H   0  0  0  0  0  0  0  0  0  0  0  0
    5.3452   -0.0776    0.0947 H   0  0  0  0  0  0  0  0  0  0  0  0
    3.4248   -1.3141    2.1525 H   0  0  0  0  0  0  0  0  0  0  0  0
    5.3560   -2.7058    0.1975 H   0  0  0  0  0  0  0  0  0  0  0  0
    1.0783   -6.4617    0.0014 H   0  0  0  0  0  0  0  0  0  0  0  0
    1.6155   -5.2623   -1.1799 H   0  0  0  0  0  0  0  0  0  0  0  0
    0.0340   -4.6692    1.3916 H   0  0  0  0  0  0  0  0  0  0  0  0
   -0.6471   -4.6457   -0.2539 H   0  0  0  0  0  0  0  0  0  0  0  0
    0.5667   -3.4451    0.2513 H   0  0  0  0  0  0  0  0  0  0  0  0
    5.3410   -2.3740    3.2600 H   0  0  0  0  0  0  0  0  0  0  0  0
    6.3063   -6.7095    4.6209 H   0  0  0  0  0  0  0  0  0  0  0  0
    7.8101   -7.3719    3.9829 H   0  0  0  0  0  0  0  0  0  0  0  0
    5.1637   -7.3012    2.4363 H   0  0  0  0  0  0  0  0  0  0  0  0
    5.8833   -8.7432    3.1898 H   0  0  0  0  0  0  0  0  0  0  0  0
    6.6849   -7.9345    1.8217 H   0  0  0  0  0  0  0  0  0  0  0  0
    7.4389   -1.1001    2.8993 H   0  0  0  0  0  0  0  0  0  0  0  0
    8.6468   -0.1818   -0.3796 H   0  0  0  0  0  0  0  0  0  0  0  0
    9.1210   -0.1947    1.3353 H   0  0  0  0  0  0  0  0  0  0  0  0
    7.7440    0.8069    0.7750 H   0  0  0  0  0  0  0  0  0  0  0  0
  1  2  2  0  0  0  0
  2  3  1  0  0  0  0
  2 25  1  0  0  0  0
  3  4  1  0  0  0  0
  4  5  1  0  0  0  0
  4 26  1  0  0  0  0
  4 27  1  0  0  0  0
  5  6  1  0  0  0  0
  5 24  1  0  0  0  0
  5 28  1  6  0  0  0
  6  7  1  0  0  0  0
  6 25  1  0  0  0  0
  6 29  1  1  0  0  0
  7  8  1  0  0  0  0
  7 14  1  0  0  0  0
  7 30  1  6  0  0  0
  8  9  1  0  0  0  0
  9 10  1  0  0  0  0
  9 13  2  0  0  0  0
 10 11  1  0  0  0  0
 11 12  1  0  0  0  0
 11 31  1  0  0  0  0
 11 32  1  0  0  0  0
 12 33  1  0  0  0  0
 12 34  1  0  0  0  0
 12 35  1  0  0  0  0
 14 21  1  0  0  0  0
 14 15  1  0  0  0  0
 14 36  1  1  0  0  0
 15 16  1  0  0  0  0
 16 17  1  0  0  0  0
 16 20  2  0  0  0  0
 17 18  1  0  0  0  0
 18 19  1  0  0  0  0
 18 37  1  0  0  0  0
 18 38  1  0  0  0  0
 19 39  1  0  0  0  0
 19 40  1  0  0  0  0
 19 41  1  0  0  0  0
 21 22  1  0  0  0  0
 21 24  1  0  0  0  0
 21 42  1  1  0  0  0
 22 23  1  0  0  0  0
 23 43  1  0  0  0  0
 23 44  1  0  0  0  0
 23 45  1  0  0  0  0
M  END
$$$$
