
 OpenBabel03182211383D

 51 52  0  0  1  0  0  0  0  0999 V2000
   -2.1121   -0.1767   -1.4704 C   0  0  0  0  0  0  0  0  0  0  0  0
   -1.4135   -0.1711   -0.1179 C   0  0  0  0  0  0  0  0  0  0  0  0
   -2.4373   -0.2525    1.0151 C   0  0  0  0  0  0  0  0  0  0  0  0
   -0.6695    1.0398    0.0025 O   0  0  0  0  0  0  0  0  0  0  0  0
    0.5041    0.7005    0.7458 C   0  0  2  0  0  0  0  0  0  0  0  0
    1.7458    1.2827    0.0853 C   0  0  1  0  0  0  0  0  0  0  0  0
    2.7583    1.5991    1.0706 O   0  0  0  0  0  0  0  0  0  0  0  0
    2.5619    2.7980    1.6873 C   0  0  0  0  0  0  0  0  0  0  0  0
    3.6501    3.2161    2.6448 C   0  0  0  0  0  0  0  0  0  0  0  0
    4.8847    2.3223    2.7056 C   0  0  0  0  0  0  0  0  0  0  0  0
    5.9517    2.7331    3.6952 C   0  0  0  0  0  0  0  0  0  0  0  0
    5.9880    3.8320    4.4631 C   0  0  0  0  0  0  0  0  0  0  0  0
    1.5720    3.5038    1.5093 O   0  0  0  0  0  0  0  0  0  0  0  0
    2.1678    0.1439   -0.8495 C   0  0  1  0  0  0  0  0  0  0  0  0
    3.6440    0.1226   -1.2424 C   0  0  0  0  0  0  0  0  0  0  0  0
    4.0537    1.3259   -1.9213 O   0  0  0  0  0  0  0  0  0  0  0  0
    3.8593    1.3213   -3.2676 C   0  0  0  0  0  0  0  0  0  0  0  0
    4.3226    2.5916   -3.9373 C   0  0  0  0  0  0  0  0  0  0  0  0
    5.6154    3.1858   -3.3780 C   0  0  0  0  0  0  0  0  0  0  0  0
    6.1533    4.3913   -4.1145 C   0  0  0  0  0  0  0  0  0  0  0  0
    5.6331    4.9843   -5.1982 C   0  0  0  0  0  0  0  0  0  0  0  0
    3.2888    0.4258   -3.8792 O   0  0  0  0  0  0  0  0  0  0  0  0
    1.8216   -1.0761   -0.1708 O   0  0  0  0  0  0  0  0  0  0  0  0
    0.6561   -0.8049    0.6128 C   0  0  2  0  0  0  0  0  0  0  0  0
   -0.5233   -1.2808   -0.0292 O   0  0  0  0  0  0  0  0  0  0  0  0
   -2.7942    0.6756   -1.5671 H   0  0  0  0  0  0  0  0  0  0  0  0
   -2.6727   -1.1033   -1.6308 H   0  0  0  0  0  0  0  0  0  0  0  0
   -1.3786   -0.0939   -2.2803 H   0  0  0  0  0  0  0  0  0  0  0  0
   -3.1196    0.6042    0.9937 H   0  0  0  0  0  0  0  0  0  0  0  0
   -1.9434   -0.2451    1.9933 H   0  0  0  0  0  0  0  0  0  0  0  0
   -3.0210   -1.1775    0.9577 H   0  0  0  0  0  0  0  0  0  0  0  0
    0.3634    1.0015    1.7888 H   0  0  0  0  0  0  0  0  0  0  0  0
    1.5394    2.1728   -0.5218 H   0  0  0  0  0  0  0  0  0  0  0  0
    3.1899    3.2755    3.6386 H   0  0  0  0  0  0  0  0  0  0  0  0
    3.9548    4.2263    2.3429 H   0  0  0  0  0  0  0  0  0  0  0  0
    5.3492    2.2754    1.7128 H   0  0  0  0  0  0  0  0  0  0  0  0
    4.5779    1.2998    2.9566 H   0  0  0  0  0  0  0  0  0  0  0  0
    6.7828    2.0348    3.7833 H   0  0  0  0  0  0  0  0  0  0  0  0
    5.2147    4.5940    4.4504 H   0  0  0  0  0  0  0  0  0  0  0  0
    6.8228    4.0008    5.1396 H   0  0  0  0  0  0  0  0  0  0  0  0
    1.5482    0.1882   -1.7553 H   0  0  0  0  0  0  0  0  0  0  0  0
    3.8632   -0.7655   -1.8509 H   0  0  0  0  0  0  0  0  0  0  0  0
    4.2753    0.0119   -0.3536 H   0  0  0  0  0  0  0  0  0  0  0  0
    3.5048    3.3180   -3.8742 H   0  0  0  0  0  0  0  0  0  0  0  0
    4.4793    2.3425   -4.9944 H   0  0  0  0  0  0  0  0  0  0  0  0
    6.3989    2.4168   -3.3728 H   0  0  0  0  0  0  0  0  0  0  0  0
    5.4645    3.4796   -2.3319 H   0  0  0  0  0  0  0  0  0  0  0  0
    7.0733    4.8104   -3.7065 H   0  0  0  0  0  0  0  0  0  0  0  0
    4.7237    4.6423   -5.6801 H   0  0  0  0  0  0  0  0  0  0  0  0
    6.1198    5.8500   -5.6410 H   0  0  0  0  0  0  0  0  0  0  0  0
    0.7690   -1.3116    1.5761 H   0  0  0  0  0  0  0  0  0  0  0  0
  1  2  1  0  0  0  0
  1 26  1  0  0  0  0
  1 27  1  0  0  0  0
  1 28  1  0  0  0  0
  2  3  1  0  0  0  0
  2  4  1  0  0  0  0
  2 25  1  0  0  0  0
  3 29  1  0  0  0  0
  3 30  1  0  0  0  0
  3 31  1  0  0  0  0
  4  5  1  0  0  0  0
  5  6  1  0  0  0  0
  5 24  1  0  0  0  0
  5 32  1  1  0  0  0
  6  7  1  0  0  0  0
  6 14  1  0  0  0  0
  6 33  1  6  0  0  0
  7  8  1  0  0  0  0
  8  9  1  0  0  0  0
  8 13  2  0  0  0  0
  9 10  1  0  0  0  0
  9 34  1  0  0  0  0
  9 35  1  0  0  0  0
 10 11  1  0  0  0  0
 10 36  1  0  0  0  0
 10 37  1  0  0  0  0
 11 12  2  0  0  0  0
 11 38  1  0  0  0  0
 12 39  1  0  0  0  0
 12 40  1  0  0  0  0
 14 15  1  0  0  0  0
 14 23  1  0  0  0  0
 14 41  1  6  0  0  0
 15 16  1  0  0  0  0
 15 42  1  0  0  0  0
 15 43  1  0  0  0  0
 16 17  1  0  0  0  0
 17 18  1  0  0  0  0
 17 22  2  0  0  0  0
 18 19  1  0  0  0  0
 18 44  1  0  0  0  0
 18 45  1  0  0  0  0
 19 20  1  0  0  0  0
 19 46  1  0  0  0  0
 19 47  1  0  0  0  0
 20 21  2  0  0  0  0
 20 48  1  0  0  0  0
 21 49  1  0  0  0  0
 21 50  1  0  0  0  0
 23 24  1  0  0  0  0
 24 25  1  0  0  0  0
 24 51  1  1  0  0  0
M  END
$$$$
