
 OpenBabel03182211383D

 87 88  0  0  1  0  0  0  0  0999 V2000
   -2.1023   -0.2753   -1.4833 C   0  0  0  0  0  0  0  0  0  0  0  0
   -1.4200   -0.2646   -0.1226 C   0  0  0  0  0  0  0  0  0  0  0  0
   -2.4525   -0.3244    1.0029 C   0  0  0  0  0  0  0  0  0  0  0  0
   -0.6760    0.9452   -0.0018 O   0  0  0  0  0  0  0  0  0  0  0  0
    0.4881    0.6045    0.7544 C   0  0  2  0  0  0  0  0  0  0  0  0
    1.7236    1.2024    0.1067 C   0  0  1  0  0  0  0  0  0  0  0  0
    2.7403    1.4894    1.0959 O   0  0  0  0  0  0  0  0  0  0  0  0
    2.5461    2.6807    1.7256 C   0  0  0  0  0  0  0  0  0  0  0  0
    3.6334    3.0920    2.6905 C   0  0  0  0  0  0  0  0  0  0  0  0
    4.8238    2.1636    2.9195 C   0  0  0  0  0  0  0  0  0  0  0  0
    5.8519    2.0848    1.7807 C   0  0  0  0  0  0  0  0  0  0  0  0
    6.4370    3.4580    1.4249 C   0  0  0  0  0  0  0  0  0  0  0  0
    7.6375    3.3990    0.4793 C   0  0  0  0  0  0  0  0  0  0  0  0
    8.0786    4.8237    0.0273 C   0  0  0  0  0  0  0  0  0  0  0  0
    9.0490    4.7337   -1.1465 C   0  0  0  0  0  0  0  0  0  0  0  0
    9.6038    5.9664   -1.8414 C   0  0  0  0  0  0  0  0  0  0  0  0
   10.4386    5.5045   -3.0221 C   0  0  0  0  0  0  0  0  0  0  0  0
   11.7671    5.6389   -3.1142 C   0  0  0  0  0  0  0  0  0  0  0  0
    1.5611    3.3913    1.5473 O   0  0  0  0  0  0  0  0  0  0  0  0
    2.1271    0.0866   -0.8598 C   0  0  1  0  0  0  0  0  0  0  0  0
    3.5865    0.1057   -1.2907 C   0  0  0  0  0  0  0  0  0  0  0  0
    3.9248    1.3388   -1.9544 O   0  0  0  0  0  0  0  0  0  0  0  0
    3.6413    1.3794   -3.2824 C   0  0  0  0  0  0  0  0  0  0  0  0
    4.1490    2.6069   -4.0063 C   0  0  0  0  0  0  0  0  0  0  0  0
    4.9296    3.6250   -3.2022 C   0  0  0  0  0  0  0  0  0  0  0  0
    6.2523    3.1020   -2.6529 C   0  0  0  0  0  0  0  0  0  0  0  0
    7.3129    2.6651   -3.6793 C   0  0  0  0  0  0  0  0  0  0  0  0
    8.5670    2.0338   -3.0418 C   0  0  0  0  0  0  0  0  0  0  0  0
    9.7003    1.7605   -4.0274 C   0  0  0  0  0  0  0  0  0  0  0  0
   11.0193    1.5662   -3.2612 C   0  0  0  0  0  0  0  0  0  0  0  0
   12.1650    1.2205   -4.2048 C   0  0  0  0  0  0  0  0  0  0  0  0
   13.4153    0.8967   -3.4394 C   0  0  0  0  0  0  0  0  0  0  0  0
   13.9803   -0.3150   -3.4386 C   0  0  0  0  0  0  0  0  0  0  0  0
    3.0276    0.5081   -3.8701 O   0  0  0  0  0  0  0  0  0  0  0  0
    1.8060   -1.1499   -0.2048 O   0  0  0  0  0  0  0  0  0  0  0  0
    0.6531   -0.8989    0.6048 C   0  0  2  0  0  0  0  0  0  0  0  0
   -0.5366   -1.3790   -0.0149 O   0  0  0  0  0  0  0  0  0  0  0  0
   -2.7832    0.5766   -1.5915 H   0  0  0  0  0  0  0  0  0  0  0  0
   -2.6599   -1.2027   -1.6485 H   0  0  0  0  0  0  0  0  0  0  0  0
   -1.3589   -0.1935   -2.2845 H   0  0  0  0  0  0  0  0  0  0  0  0
   -3.1270    0.5380    0.9653 H   0  0  0  0  0  0  0  0  0  0  0  0
   -1.9641   -0.3054    1.9839 H   0  0  0  0  0  0  0  0  0  0  0  0
   -3.0426   -1.2452    0.9552 H   0  0  0  0  0  0  0  0  0  0  0  0
    0.3338    0.8929    1.7987 H   0  0  0  0  0  0  0  0  0  0  0  0
    1.5152    2.1070   -0.4788 H   0  0  0  0  0  0  0  0  0  0  0  0
    3.1309    3.2195    3.6581 H   0  0  0  0  0  0  0  0  0  0  0  0
    3.9782    4.0844    2.3816 H   0  0  0  0  0  0  0  0  0  0  0  0
    4.4706    1.1561    3.1675 H   0  0  0  0  0  0  0  0  0  0  0  0
    5.3532    2.5306    3.8100 H   0  0  0  0  0  0  0  0  0  0  0  0
    5.3972    1.6291    0.8964 H   0  0  0  0  0  0  0  0  0  0  0  0
    6.6588    1.4127    2.0994 H   0  0  0  0  0  0  0  0  0  0  0  0
    6.7450    3.9757    2.3385 H   0  0  0  0  0  0  0  0  0  0  0  0
    5.6531    4.0581    0.9497 H   0  0  0  0  0  0  0  0  0  0  0  0
    7.3748    2.7711   -0.3735 H   0  0  0  0  0  0  0  0  0  0  0  0
    8.4755    2.8778    0.9565 H   0  0  0  0  0  0  0  0  0  0  0  0
    8.5376    5.3456    0.8702 H   0  0  0  0  0  0  0  0  0  0  0  0
    7.1935    5.3915   -0.2839 H   0  0  0  0  0  0  0  0  0  0  0  0
    8.4551    4.3150   -1.9419 H   0  0  0  0  0  0  0  0  0  0  0  0
    9.8605    4.0402   -0.8935 H   0  0  0  0  0  0  0  0  0  0  0  0
   10.1829    6.5805   -1.1502 H   0  0  0  0  0  0  0  0  0  0  0  0
    8.7800    6.5707   -2.2393 H   0  0  0  0  0  0  0  0  0  0  0  0
    9.9170    4.9946   -3.8347 H   0  0  0  0  0  0  0  0  0  0  0  0
   12.3457    6.1163   -2.3312 H   0  0  0  0  0  0  0  0  0  0  0  0
   12.3087    5.2526   -3.9743 H   0  0  0  0  0  0  0  0  0  0  0  0
    1.4858    0.1480   -1.7485 H   0  0  0  0  0  0  0  0  0  0  0  0
    3.8225   -0.7569   -1.9280 H   0  0  0  0  0  0  0  0  0  0  0  0
    4.2483   -0.0008   -0.4227 H   0  0  0  0  0  0  0  0  0  0  0  0
    3.2695    3.1094   -4.4237 H   0  0  0  0  0  0  0  0  0  0  0  0
    4.7637    2.2597   -4.8426 H   0  0  0  0  0  0  0  0  0  0  0  0
    4.3152    3.9797   -2.3625 H   0  0  0  0  0  0  0  0  0  0  0  0
    5.1294    4.5048   -3.8267 H   0  0  0  0  0  0  0  0  0  0  0  0
    6.0758    2.2825   -1.9553 H   0  0  0  0  0  0  0  0  0  0  0  0
    6.6151    3.9374   -2.0597 H   0  0  0  0  0  0  0  0  0  0  0  0
    7.5946    3.5345   -4.2837 H   0  0  0  0  0  0  0  0  0  0  0  0
    6.8854    1.9185   -4.3513 H   0  0  0  0  0  0  0  0  0  0  0  0
    8.3058    1.1321   -2.4792 H   0  0  0  0  0  0  0  0  0  0  0  0
    9.0071    2.6723   -2.2953 H   0  0  0  0  0  0  0  0  0  0  0  0
    9.8179    2.6016   -4.7209 H   0  0  0  0  0  0  0  0  0  0  0  0
    9.4623    0.8702   -4.6178 H   0  0  0  0  0  0  0  0  0  0  0  0
   10.8947    0.7799   -2.5056 H   0  0  0  0  0  0  0  0  0  0  0  0
   11.2724    2.4846   -2.7120 H   0  0  0  0  0  0  0  0  0  0  0  0
   12.3679    2.0660   -4.8719 H   0  0  0  0  0  0  0  0  0  0  0  0
   11.8722    0.3742   -4.8360 H   0  0  0  0  0  0  0  0  0  0  0  0
   13.8692    1.6980   -2.8583 H   0  0  0  0  0  0  0  0  0  0  0  0
   13.5515   -1.1403   -4.0001 H   0  0  0  0  0  0  0  0  0  0  0  0
   14.8813   -0.5129   -2.8660 H   0  0  0  0  0  0  0  0  0  0  0  0
    0.7951   -1.4141    1.5589 H   0  0  0  0  0  0  0  0  0  0  0  0
  1  2  1  0  0  0  0
  1 38  1  0  0  0  0
  1 39  1  0  0  0  0
  1 40  1  0  0  0  0
  2  3  1  0  0  0  0
  2  4  1  0  0  0  0
  2 37  1  0  0  0  0
  3 41  1  0  0  0  0
  3 42  1  0  0  0  0
  3 43  1  0  0  0  0
  4  5  1  0  0  0  0
  5  6  1  0  0  0  0
  5 36  1  0  0  0  0
  5 44  1  1  0  0  0
  6  7  1  0  0  0  0
  6 20  1  0  0  0  0
  6 45  1  6  0  0  0
  7  8  1  0  0  0  0
  8  9  1  0  0  0  0
  8 19  2  0  0  0  0
  9 10  1  0  0  0  0
  9 46  1  0  0  0  0
  9 47  1  0  0  0  0
 10 11  1  0  0  0  0
 10 48  1  0  0  0  0
 10 49  1  0  0  0  0
 11 12  1  0  0  0  0
 11 50  1  0  0  0  0
 11 51  1  0  0  0  0
 12 13  1  0  0  0  0
 12 52  1  0  0  0  0
 12 53  1  0  0  0  0
 13 14  1  0  0  0  0
 13 54  1  0  0  0  0
 13 55  1  0  0  0  0
 14 15  1  0  0  0  0
 14 56  1  0  0  0  0
 14 57  1  0  0  0  0
 15 16  1  0  0  0  0
 15 58  1  0  0  0  0
 15 59  1  0  0  0  0
 16 17  1  0  0  0  0
 16 60  1  0  0  0  0
 16 61  1  0  0  0  0
 17 18  2  0  0  0  0
 17 62  1  0  0  0  0
 18 63  1  0  0  0  0
 18 64  1  0  0  0  0
 20 21  1  0  0  0  0
 20 35  1  0  0  0  0
 20 65  1  6  0  0  0
 21 22  1  0  0  0  0
 21 66  1  0  0  0  0
 21 67  1  0  0  0  0
 22 23  1  0  0  0  0
 23 24  1  0  0  0  0
 23 34  2  0  0  0  0
 24 25  1  0  0  0  0
 24 68  1  0  0  0  0
 24 69  1  0  0  0  0
 25 26  1  0  0  0  0
 25 70  1  0  0  0  0
 25 71  1  0  0  0  0
 26 27  1  0  0  0  0
 26 72  1  0  0  0  0
 26 73  1  0  0  0  0
 27 28  1  0  0  0  0
 27 74  1  0  0  0  0
 27 75  1  0  0  0  0
 28 29  1  0  0  0  0
 28 76  1  0  0  0  0
 28 77  1  0  0  0  0
 29 30  1  0  0  0  0
 29 78  1  0  0  0  0
 29 79  1  0  0  0  0
 30 31  1  0  0  0  0
 30 80  1  0  0  0  0
 30 81  1  0  0  0  0
 31 32  1  0  0  0  0
 31 82  1  0  0  0  0
 31 83  1  0  0  0  0
 32 33  2  0  0  0  0
 32 84  1  0  0  0  0
 33 85  1  0  0  0  0
 33 86  1  0  0  0  0
 35 36  1  0  0  0  0
 36 37  1  0  0  0  0
 36 87  1  1  0  0  0
M  END
$$$$
