
 OpenBabel03182211373D

 38 41  0  0  1  0  0  0  0  0999 V2000
    0.7992   -1.3570   -1.8114 C   0  0  0  0  0  0  0  0  0  0  0  0
    2.0689   -0.8353   -2.2144 O   0  0  0  0  0  0  0  0  0  0  0  0
    3.0400   -0.8492   -1.1601 C   0  0  2  0  0  0  0  0  0  0  0  0
    4.3986   -0.2458   -1.6467 C   0  0  2  0  0  0  0  0  0  0  0  0
    5.5081   -0.9647   -0.9447 C   0  0  2  0  0  0  0  0  0  0  0  0
    6.6174   -0.1400   -1.1866 O   0  0  0  0  0  0  0  0  0  0  0  0
    6.0758    1.1327   -1.1507 C   0  0  0  0  0  0  0  0  0  0  0  0
    4.6986    1.0853   -1.2575 O   0  0  0  0  0  0  0  0  0  0  0  0
    6.7241    2.1494   -1.0140 O   0  0  0  0  0  0  0  0  0  0  0  0
    5.5633   -2.4338   -1.3447 C   0  0  2  0  0  0  0  0  0  0  0  0
    6.3004   -2.7860   -2.5063 O   0  0  0  0  0  0  0  0  0  0  0  0
    6.3121   -4.2274   -2.6422 C   0  0  3  0  0  0  0  0  0  0  0  0
    6.9459   -4.5617   -3.9750 C   0  0  0  0  0  0  0  0  0  0  0  0
    8.1096   -5.3425   -4.0459 C   0  0  0  0  0  0  0  0  0  0  0  0
    8.6945   -5.6378   -5.2806 C   0  0  0  0  0  0  0  0  0  0  0  0
    8.1224   -5.1616   -6.4591 C   0  0  0  0  0  0  0  0  0  0  0  0
    6.9599   -4.3963   -6.4065 C   0  0  0  0  0  0  0  0  0  0  0  0
    6.3745   -4.1005   -5.1739 C   0  0  0  0  0  0  0  0  0  0  0  0
    5.0083   -4.8390   -2.6283 O   0  0  0  0  0  0  0  0  0  0  0  0
    4.1647   -4.3926   -1.5621 C   0  0  0  0  0  0  0  0  0  0  0  0
    4.1232   -2.8821   -1.6156 C   0  0  1  0  0  0  0  0  0  0  0  0
    3.2372   -2.2237   -0.7174 O   0  0  0  0  0  0  0  0  0  0  0  0
    0.2096   -1.5628   -2.7117 H   0  0  0  0  0  0  0  0  0  0  0  0
    0.2551   -0.6278   -1.2067 H   0  0  0  0  0  0  0  0  0  0  0  0
    0.8875   -2.3013   -1.2605 H   0  0  0  0  0  0  0  0  0  0  0  0
    2.6528   -0.2616   -0.3221 H   0  0  0  0  0  0  0  0  0  0  0  0
    4.4977   -0.2920   -2.7388 H   0  0  0  0  0  0  0  0  0  0  0  0
    5.3379   -0.9365    0.1451 H   0  0  0  0  0  0  0  0  0  0  0  0
    6.0059   -2.9616   -0.4880 H   0  0  0  0  0  0  0  0  0  0  0  0
    6.9043   -4.6514   -1.8216 H   0  0  0  0  0  0  0  0  0  0  0  0
    8.5717   -5.7277   -3.1403 H   0  0  0  0  0  0  0  0  0  0  0  0
    9.5991   -6.2392   -5.3237 H   0  0  0  0  0  0  0  0  0  0  0  0
    8.5811   -5.3879   -7.4180 H   0  0  0  0  0  0  0  0  0  0  0  0
    6.5086   -4.0277   -7.3238 H   0  0  0  0  0  0  0  0  0  0  0  0
    5.4643   -3.5053   -5.1443 H   0  0  0  0  0  0  0  0  0  0  0  0
    4.5351   -4.7662   -0.6001 H   0  0  0  0  0  0  0  0  0  0  0  0
    3.1639   -4.8133   -1.7032 H   0  0  0  0  0  0  0  0  0  0  0  0
    3.8390   -2.6304   -2.6507 H   0  0  0  0  0  0  0  0  0  0  0  0
  1  2  1  0  0  0  0
  1 23  1  0  0  0  0
  1 24  1  0  0  0  0
  1 25  1  0  0  0  0
  3  4  1  0  0  0  0
  3 22  1  0  0  0  0
  3  2  1  0  0  0  0
  3 26  1  1  0  0  0
  4  5  1  0  0  0  0
  4  8  1  0  0  0  0
  4 27  1  6  0  0  0
  5  6  1  0  0  0  0
  5 10  1  0  0  0  0
  5 28  1  1  0  0  0
  6  7  1  0  0  0  0
  7  8  1  0  0  0  0
  7  9  2  0  0  0  0
 10 11  1  0  0  0  0
 10 21  1  0  0  0  0
 10 29  1  1  0  0  0
 11 12  1  0  0  0  0
 12 13  1  0  0  0  0
 12 19  1  0  0  0  0
 12 30  1  0  0  0  0
 13 14  2  0  0  0  0
 13 18  1  0  0  0  0
 14 15  1  0  0  0  0
 14 31  1  0  0  0  0
 15 16  2  0  0  0  0
 15 32  1  0  0  0  0
 16 17  1  0  0  0  0
 16 33  1  0  0  0  0
 17 18  2  0  0  0  0
 17 34  1  0  0  0  0
 18 35  1  0  0  0  0
 19 20  1  0  0  0  0
 20 21  1  0  0  0  0
 20 36  1  0  0  0  0
 20 37  1  0  0  0  0
 21 22  1  0  0  0  0
 21 38  1  6  0  0  0
M  END
$$$$
