29

C          0.89069       -0.00446        0.31434
N          2.36365        0.05162        0.15760
C          3.04901        1.23295        0.40454
C          4.36975        1.28213        0.59815
C          5.19138        0.01634        0.58257
C          4.41781       -1.18012        0.08249
C          3.08626       -1.11664       -0.12548
C          2.31142       -2.26149       -0.58314
C          2.53264       -2.88775       -1.75786
C          1.58488       -3.96278       -2.23274
C          0.77104       -4.54315       -1.10596
C          0.60552       -3.82529        0.01359
N          1.16657       -2.55683        0.17429
C          0.22408       -1.41580        0.26115
O         -0.67690       -1.59613        1.35504
H          0.43776        0.60838       -0.47841
H          0.62063        0.47545        1.26314
H          2.43074        2.12872        0.43011
H          4.87101        2.22433        0.79175
H          5.55297       -0.18215        1.59965
H          6.06856        0.16672       -0.05477
H          4.96379       -2.10357       -0.06412
H          3.33497       -2.57844       -2.41762
H          2.14889       -4.75795       -2.72676
H          0.89849       -3.53126       -2.97383
H          0.30167       -5.51179       -1.22543
H          0.00888       -4.15524        0.85911
H         -0.38771       -1.44665       -0.65317
H         -1.47239       -1.08886        1.12984
