24

N          6.37262       -0.96115       -0.83622
C          6.27602       -0.93797        0.52963
C          5.09405       -0.91210        1.15571
C          3.77829       -0.88481        0.36831
C          4.02097       -0.90896       -1.14240
C          5.26586       -0.94450       -1.64310
C          2.84541        0.30056        0.79169
C          2.43679        0.15428        2.26076
C          2.83766        1.05312        3.17342
N          3.56333        2.16074        2.82357
C          3.82033        2.47880        1.51621
C          3.47806        1.66123        0.50905
H          7.29324       -0.98831       -1.25935
H          7.21961       -0.93795        1.06751
H          5.05087       -0.88235        2.23802
H          3.25663       -1.82034        0.60781
H          3.16233       -0.90134       -1.80505
H          5.47023       -0.96424       -2.70913
H          1.91827        0.24958        0.20228
H          1.85462       -0.71185        2.55397
H          2.61350        0.95798        4.23026
H          3.90286        2.77874        3.55132
H          4.31407        3.43048        1.35265
H          3.68047        1.93584       -0.51995
