36

N          5.13861       -3.09456        1.79853
C          3.85614       -3.31393        1.30180
C          3.13080       -2.36281        0.69655
C          3.71344       -0.98577        0.43362
C          4.97537       -0.75457        1.25884
C          5.61651       -1.78510        1.83093
C          4.01091       -0.75440       -1.08904
C          2.75324       -0.82326       -1.95003
C          2.73019       -1.50630       -3.10661
N          3.82754       -2.19907       -3.61001
C          4.95163       -2.32876       -2.79887
C          5.09951       -1.67448       -1.63972
C          3.78055       -2.86968       -4.93632
C          4.81102       -2.26982       -5.89200
O          5.24417       -2.84583       -6.88055
O          5.16937       -0.99818       -5.57826
C          6.09536       -4.23482        1.87918
C          6.67597       -4.39522        3.27542
O          7.71981       -4.98118        3.51550
O          5.88663       -3.87062        4.24627
H          3.47012       -4.32111        1.42309
H          2.13135       -2.58150        0.32939
H          2.97356       -0.24644        0.77026
H          5.38991        0.24735        1.30167
H          6.57087       -1.64440        2.33546
H          4.39447        0.27119       -1.18891
H          1.86648       -0.29896       -1.60875
H          1.82887       -1.55338       -3.71267
H          5.73441       -2.98283       -3.17805
H          6.01664       -1.79808       -1.07347
H          2.79824       -2.74504       -5.40544
H          3.98509       -3.93854       -4.81575
H          4.75210       -0.75038       -4.72096
H          6.91094       -4.06539        1.16749
H          5.59981       -5.17846        1.62188
H          5.12355       -3.41188        3.82441
