37

C         -0.62292        1.17138        0.17145
C          0.60914        0.82319       -0.22655
N          1.00787       -0.49545       -0.33525
C          0.18765       -1.52614        0.17382
C         -1.07019       -1.27971        0.57597
C         -1.64509        0.11762        0.50678
C          0.74838       -2.87456        0.00137
C          1.19918       -3.59667        1.04567
C          2.08797       -4.79254        0.82375
C          2.17408       -5.22122       -0.61097
C          1.68307       -4.46006       -1.61455
N          1.08767       -3.21591       -1.33161
C          1.34316       -2.03498       -2.21374
C          1.99629       -0.91267       -1.35727
C          1.76832       -4.96532       -3.01429
N          2.85997       -5.71234       -3.32685
C          2.94864       -6.20088       -4.58210
C          2.00592       -5.98065       -5.56788
C          0.89026       -5.21719       -5.24219
C          0.76218       -4.70879       -3.94927
H         -0.90750        2.21456        0.21438
H          1.36156        1.55372       -0.50959
H         -1.73862       -2.09017        0.85030
H         -2.11828        0.36404        1.45982
H         -2.42521        0.13888       -0.26709
H          1.06627       -3.24939        2.06473
H          1.72948       -5.63096        1.42916
H          3.10069       -4.54581        1.17214
H          2.66689       -6.16296       -0.82141
H          0.38191       -1.68690       -2.62123
H          1.99947       -2.27772       -3.05039
H          2.28636       -0.07484       -1.99706
H          2.89971       -1.29280       -0.85975
H          3.83130       -6.80431       -4.77770
H          2.13179       -6.39713       -6.56120
H          0.12428       -5.02336       -5.98784
H         -0.11679       -4.13511       -3.67707
