35

C         -0.15223        1.26396        0.12373
C          1.10571        0.84162        0.29152
N          1.45919       -0.49690        0.37616
C          0.49494       -1.47232       -0.01270
C         -0.80419       -1.13423       -0.15622
C         -1.28098        0.27513        0.04328
C          0.89928       -2.87718       -0.16878
C          0.78459       -3.50662       -1.35405
C          1.24882       -4.86822       -1.51326
C          1.92776       -5.47490       -0.52726
C          2.17587       -4.79617        0.80700
N          1.45579       -3.52245        0.94325
C          1.74665       -2.76047        2.15519
C          2.95603       -1.86600        1.91571
C          2.83987       -0.88421        0.73561
O          2.39013       -6.77133       -0.72655
C          3.59813       -7.09005       -0.04052
H         -0.37986        2.32176        0.05088
H          1.93204        1.54360        0.35804
H         -1.55029       -1.88840       -0.38003
H         -1.86623        0.32905        0.96989
H         -1.94396        0.54767       -0.78517
H          0.37617       -3.00818       -2.22748
H          1.06826       -5.36339       -2.45720
H          3.24798       -4.60327        0.90960
H          1.86162       -5.46311        1.61884
H          1.93609       -3.43842        2.99284
H          0.87695       -2.16402        2.46502
H          3.84147       -2.49083        1.74135
H          3.16416       -1.31058        2.83942
H          3.34552       -1.29155       -0.14816
H          3.41654        0.00660        1.01593
H          3.91795       -8.08643       -0.35812
H          3.43761       -7.12274        1.04164
H          4.39475       -6.38092       -0.29120
