36

N          1.43010       -0.20477       -0.02450
C          0.52471       -1.24298       -0.19665
C         -0.80104       -1.05344       -0.22887
C         -1.39006        0.32463        0.05999
C         -0.34171        1.42769       -0.13366
C          0.96488        1.10339       -0.12249
C         -0.82208        2.83485       -0.30083
C         -2.01930        0.38817        1.51065
C         -0.95936        0.10959        2.57540
C         -0.90684       -1.08993        3.17224
N         -1.85334       -2.08194        2.95268
C         -3.03574       -1.73764        2.30325
C         -3.20271       -0.57302        1.64414
C         -4.49984       -0.15938        1.02589
C         -1.58362       -3.47253        3.31405
C          2.81125       -0.47055        0.37130
H          0.95641       -2.23514       -0.28453
H         -1.47273       -1.89356       -0.34050
H         -2.17532        0.48919       -0.68969
H          1.74447        1.85488       -0.19178
H         -1.91578        2.88702       -0.28822
H         -0.48628        3.23981       -1.25980
H         -0.44760        3.46836        0.50972
H         -2.39394        1.40330        1.70477
H         -0.18780        0.84538        2.75043
H         -0.09251       -1.35395        3.84002
H         -3.82033       -2.47949        2.37551
H         -5.28391       -0.90806        1.17486
H         -4.38796       -0.00240       -0.05159
H         -4.84826        0.77901        1.47421
H         -0.58431       -3.59704        3.74427
H         -1.63128       -4.10267        2.41800
H         -2.31879       -3.83428        4.03873
H          3.00780       -1.54316        0.48247
H          3.01576       -0.00229        1.34167
H          3.51159       -0.06838       -0.36743
