29

C         -4.35277        1.46734        0.00133
C         -4.85643        0.17214        0.00778
C         -3.97712       -0.90818        0.00190
C         -2.58803       -0.70276       -0.00748
C         -2.06968        0.60044       -0.00170
C         -2.97110        1.67952       -0.00817
N         -0.68585        0.86057       -0.04579
C          0.37494       -0.07971       -0.00094
C          0.09313       -1.46448       -0.00829
S         -1.55597       -2.14865       -0.02514
C          1.13293       -2.39656        0.00022
C          2.45709       -1.97830        0.00819
C          2.77626       -0.62190        0.00548
C          1.74587        0.35772       -0.00415
C          2.16732        1.71372       -0.01233
C          3.52033        2.07431       -0.00611
C          4.50125        1.09501        0.00387
C          4.12846       -0.24472        0.00867
H         -5.03380        2.31427        0.00016
H         -5.92960       -0.00100        0.01269
H         -4.38158       -1.91879        0.00211
H         -2.60204        2.70125       -0.02075
H         -0.43213        1.82476        0.09797
H          0.91813       -3.46346       -0.00160
H          3.24037       -2.73566        0.01275
H          1.44425        2.52461       -0.02504
H          3.80297        3.12479       -0.01099
H          5.55192        1.36921        0.00708
H          4.91124       -1.00148        0.01406
