37

C         -5.40854       -0.23041        0.95113
C         -4.25147        0.46388        1.31880
C         -3.08941        0.31214        0.55974
C         -3.03998       -0.69440       -0.40739
C         -4.20595       -1.40924       -0.71198
C         -5.40990       -0.79373       -0.32899
C         -6.03896        0.31464       -1.30060
C         -7.03052        1.27748       -0.62041
C         -7.36704        1.18529        0.68121
C         -6.76072        0.10475        1.52553
N         -4.11478       -2.84604       -0.78566
C         -2.91935       -3.63192       -0.65793
C         -1.65672       -2.98228       -0.66358
S         -1.46359       -1.23389       -0.99954
C         -0.47410       -3.68695       -0.42832
C         -0.49689       -5.05318       -0.21122
C         -1.71107       -5.74617       -0.21364
C         -2.94948       -5.06911       -0.40814
C         -4.10877       -5.88355       -0.32202
C         -4.03638       -7.27809       -0.11893
C         -2.80270       -7.90090        0.02824
C         -1.65819       -7.14161       -0.00768
H         -4.27575        1.18455        2.12870
H         -2.20395        0.89366        0.79866
H         -6.51073       -0.16006       -2.16396
H         -5.21543        0.94953       -1.66395
H         -7.41677        2.10847       -1.20625
H         -8.02505        1.90348        1.16068
H         -7.40827       -0.78146        1.48160
H         -6.67318        0.38857        2.57807
H         -4.95536       -3.32947       -1.06879
H          0.48299       -3.17144       -0.40923
H          0.44035       -5.56819       -0.03630
H         -5.09520       -5.44482       -0.41276
H         -4.94422       -7.87288       -0.07078
H         -2.74298       -8.98311        0.17062
H         -0.69910       -7.63839        0.12326
