42

C          0.95136       -0.03452       -0.08026
C          0.27116       -1.20631        0.04192
C         -1.24884       -1.20631        0.04192
O         -1.88429       -2.30101        0.15607
C         -2.00884        0.10295       -0.09460
C         -1.60779        0.98091       -1.02272
C          2.47136       -0.03452       -0.08026
O          3.10681        1.06017       -0.19441
C         -2.30000        2.33885       -1.24683
C         -3.61475        2.01251       -1.91419
N         -3.20537        0.35946        0.84103
C         -4.42341        0.29995       -0.05311
C         -4.30891       -0.33650       -1.41213
C         -3.85180        0.63323       -2.46431
N         -5.56596        0.06375       -2.66126
O         -4.29937        3.00062       -2.67004
C         -3.47370        3.43357       -3.74113
C         -2.49952        3.09417        0.05704
O         -3.13929        4.33393       -0.20766
C         -2.38252        5.43497       -0.68872
O         -1.13261        5.31081       -0.88236
N         -3.04483        6.71839       -0.96274
C          1.03116       -2.51557        0.17844
N          2.42136       -0.03452       -0.08026
H         -1.70312        2.98764       -1.85321
H         -4.74738        1.30807       -0.20682
H         -5.09340       -0.34672        0.47397
H         -3.96744       -1.28556       -1.05495
H         -3.04837        0.66400       -3.17033
H         -5.82996       -0.60097       -3.38848
H         -3.98958        4.17814       -4.31068
H         -3.24067        2.60062       -4.37104
H         -2.56870        3.84820       -3.34875
H         -3.10849        2.51219        0.71685
H         -1.54903        3.27364        0.51448
H         -4.01307        6.81457       -0.81274
H         -2.52015        7.48175       -1.29626
H          2.08314       -2.32110        0.15816
H          0.77267       -3.16424       -0.63231
H          0.77267       -2.98303        1.10557
H          2.91361        0.80433        0.07225
H          2.91361       -0.87337       -0.23278
