26

C         -1.04188        0.01501        0.01899
C         -0.31897        1.20464        0.02164
C          1.06301        1.13478        0.02539
N          1.76104       -0.02148        0.01612
C          1.05887       -1.18960        0.00583
C         -0.33794       -1.19364        0.01969
C          1.84733       -2.44399       -0.06569
C          3.24328       -2.43605       -0.13331
C          3.94526       -3.63742       -0.26417
C          3.22008       -4.82786       -0.30834
C          1.84163       -4.76255       -0.22093
N          1.14535       -3.61170       -0.10268
C          5.43811       -3.64927       -0.37618
C         -2.53932        0.00653       -0.00503
H         -0.81346        2.16993        0.01582
H          1.66734        2.03757        0.02761
H         -0.87626       -2.13796        0.01277
H          3.77773       -1.49010       -0.09938
H          3.71612       -5.78638       -0.41544
H          1.23759       -5.66521       -0.25136
H          5.85135       -2.63699       -0.31661
H          5.73862       -4.07754       -1.33755
H          5.87429       -4.23908        0.43583
H         -2.94664        1.02259       -0.00894
H         -2.92882       -0.51079        0.87740
H         -2.89620       -0.50192       -0.90678
