34

C         -0.59147        1.20502        0.18308
C          0.63229        0.85420       -0.22179
N          1.02479       -0.46790       -0.32996
C          0.21551       -1.49325        0.19265
C         -1.04132       -1.24748        0.61122
C         -1.61794        0.15401        0.52139
C          0.78862       -2.84328        0.04333
C          1.21260       -3.55949        1.10634
C          2.09514       -4.76086        0.91200
C          2.18379       -5.21482       -0.51995
C          1.71917       -4.46065       -1.53968
N          1.15533       -3.20365       -1.27678
C          1.38814       -2.03905       -2.18014
C          2.02527       -0.89542       -1.33470
C          1.80671       -4.98001       -2.96281
C          0.44346       -5.28869       -3.57485
H         -0.87739        2.25273        0.23235
H          1.38613        1.58197       -0.50423
H         -1.70763       -2.05022        0.89601
H         -2.09541        0.40772        1.47172
H         -2.39337        0.17116       -0.25461
H          1.05332       -3.20261        2.11673
H          1.73050       -5.58701        1.52702
H          3.10751       -4.50976        1.25903
H          2.66490       -6.16649       -0.70709
H          0.42750       -1.71430       -2.60030
H          2.05837       -2.28049       -3.00530
H          2.31535       -0.06252       -1.99091
H          2.92495       -1.25629       -0.82227
H          2.39776       -5.90347       -2.98689
H          2.34664       -4.27680       -3.60435
H         -0.14359       -5.95103       -2.93082
H          0.57495       -5.79239       -4.54025
H         -0.13498       -4.37861       -3.75500
