34

C          1.68008        8.99002        8.36340
C          3.03577        8.98001        7.81297
C          3.19107        8.47172        6.56440
C          2.30991        7.35309        6.15350
N          1.10286        7.17763        6.89622
C          0.79989        8.10096        7.89619
C          0.35488        6.01826        6.65597
C          0.74993        5.07189        5.77239
N          1.93510        5.24607        5.00313
C          2.67652        6.45698        5.19762
C          3.88607        6.62769        4.38144
C          4.45061        5.56563        3.77013
C          3.86365        4.25892        3.93191
C          2.60656        4.17764        4.39522
C          0.03938        3.77674        5.69824
C         -0.99199        3.58182        4.76945
C         -1.48395        2.29751        4.53491
C         -0.95085        1.20261        5.22017
C          0.04466        1.39408        6.17539
C          0.52066        2.67829        6.42880
H          1.44065        9.71931        9.13244
H          3.67148        8.50828        8.57820
H          3.18366        9.21847        5.76563
H         -0.22121        8.04196        8.28807
H         -0.50350        5.88818        7.29747
H          4.28426        7.61843        4.22180
H          5.29352        5.67614        3.10488
H          4.43512        3.37423        3.68943
H          2.11486        3.21597        4.42078
H         -1.36779        4.41887        4.18532
H         -2.25665        2.14218        3.78757
H         -1.30133        0.19797        4.99579
H          0.47612        0.54136        6.69277
H          1.34454        2.81479        7.13088
