32

N          6.29432       -1.47164       -0.74384
C          6.12816       -1.28912        0.62264
C          4.94660       -0.99663        1.18329
C          3.67451       -0.85689        0.34377
C          4.00129       -0.85640       -1.14456
C          5.23271       -1.15705       -1.58596
C          2.76665        0.35399        0.74918
C          2.31798        0.21268        2.19998
C          2.88737        0.96642        3.15339
N          3.83820        1.94230        2.86591
C          3.98077        2.36015        1.54627
C          3.46528        1.68101        0.51290
C          4.75689        2.43552        3.90630
C          4.22906        3.60424        4.62541
N          3.84556        4.52517        5.22057
C          7.54048       -2.05596       -1.27982
C          8.55335       -1.04421       -1.60250
N          9.39043       -0.28225       -1.87205
H          7.02425       -1.40401        1.22746
H          4.88346       -0.87304        2.25857
H          3.08845       -1.76860        0.53005
H          3.20998       -0.62453       -1.84891
H          5.46200       -1.17228       -2.64790
H          1.85646        0.34711        0.13332
H          1.58791       -0.54910        2.45100
H          2.64761        0.83538        4.20477
H          4.55311        3.27099        1.39542
H          3.59558        2.03067       -0.50541
H          5.72330        2.68862        3.45260
H          4.96923        1.62896        4.61743
H          7.31278       -2.64988       -2.17126
H          7.95232       -2.76720       -0.55021
