38

C         -0.51085        1.21154        0.17102
C          0.71012        0.84059       -0.21958
N          1.08527       -0.48457       -0.31920
C          0.25820       -1.49787        0.23232
C         -1.00072       -1.22455        0.61427
C         -1.55817        0.17644        0.49770
C          0.80389       -2.85167        0.08240
C          1.25134       -3.55895        1.13851
C          2.13707       -4.76857        0.94960
C          2.30205       -5.19317       -0.50265
C          1.80465       -4.41482       -1.47254
N          1.14519       -3.21811       -1.23852
C          1.35988       -2.07675       -2.17020
C          2.04173       -0.93380       -1.36161
O          3.07804       -6.28246       -0.85644
C          3.24999       -7.26928        0.15522
C          4.11897       -8.38963       -0.39911
C          4.31306       -9.47867        0.64103
H         -0.78176        2.26055        0.21514
H          1.48072        1.55685       -0.49696
H         -1.67606       -2.01977        0.90114
H         -2.05613        0.44583        1.43277
H         -2.31614        0.19323       -0.29897
H          1.11767       -3.18989        2.15034
H          1.73186       -5.58841        1.54880
H          3.13381       -4.52085        1.34423
H          1.94796       -4.65601       -2.51889
H          0.38499       -1.74376       -2.55925
H          1.98409       -2.36407       -3.02060
H          2.31105       -0.10931       -2.03329
H          2.95762       -1.29858       -0.88102
H          2.26913       -7.66670        0.44611
H          3.74786       -6.83321        1.02797
H          5.09087       -7.98659       -0.70727
H          3.66278       -8.80685       -1.30447
H          4.79663       -9.07767        1.53764
H          4.93996      -10.28201        0.24430
H          3.35046       -9.90824        0.93610
