23

C          3.68956        0.81805        0.00153
C          3.81597       -0.56661       -0.00022
C          2.67336       -1.36485       -0.00150
C          1.39543       -0.78514       -0.00097
C          1.25971        0.61363        0.00101
C          2.42077        1.40377        0.00181
N          0.00311        1.24225        0.00090
C         -1.25514        0.61846       -0.00050
C         -1.39480       -0.78280       -0.00125
S         -0.00103       -1.89563       -0.00204
C         -2.67145       -1.35982       -0.00162
C         -3.79768       -0.54923       -0.00162
C         -3.68196        0.83294       -0.00116
C         -2.41317        1.41553       -0.00042
F         -5.01391       -1.10999       -0.00167
H          4.57820        1.44431        0.00254
H          4.80007       -1.02816       -0.00050
H          2.78458       -2.44706       -0.00267
H          2.34756        2.48797        0.00300
H          0.00814        2.25331        0.00053
H         -2.80027       -2.43802       -0.00174
H         -4.57710        1.44657       -0.00094
H         -2.33543        2.49970        0.00053
