27

C          1.62974       -4.13329      -11.63538
C          2.99406       -4.30524      -11.12700
C          3.12266       -4.46310       -9.78931
C          2.22566       -3.65569       -8.92602
N          1.00120       -3.21206       -9.51250
C          0.71324       -3.58258      -10.82638
C          0.19114       -2.37528       -8.75374
C          0.54672       -1.89963       -7.54011
N          1.78328       -2.30596       -6.95836
C          2.57194       -3.27171       -7.66089
C          3.78283       -3.75518       -6.99756
C          4.30840       -3.06948       -5.96897
C          3.68524       -1.83376       -5.54915
C          2.43565       -1.56873       -5.96204
C         -0.34471       -0.92114       -6.82474
H          1.40962       -4.43101      -12.65182
H          3.57842       -3.47295      -11.55234
H          3.06391       -5.49888       -9.44107
H         -0.30473       -3.38662      -11.14743
H         -0.72854       -2.06785       -9.23535
H          4.21081       -4.70223       -7.29848
H          5.16648       -3.43374       -5.42201
H          4.23613       -1.14425       -4.92208
H          1.91779       -0.68712       -5.60839
H         -1.28939       -0.76790       -7.35482
H          0.14004        0.05717       -6.75303
H         -0.58842       -1.27124       -5.81625
