22

C         -2.19605        0.77643       -0.02471
O         -3.23437        1.42138       -0.04356
C         -2.20500       -0.75717       -0.02907
O         -3.24865       -1.39252       -0.02956
C         -0.89893       -1.44793       -0.02872
C          0.21663       -0.71368       -0.00913
C          0.24278        0.73661        0.02413
C         -0.88324        1.45727        0.00792
N          1.55231        1.15303        0.08384
C          2.51153        0.04545       -0.01696
C          1.63353       -1.22855        0.01898
O          1.83839       -1.96798        1.22000
C          2.06793        2.50574        0.01128
H         -0.90232       -2.52988       -0.02821
H         -0.90447        2.53738        0.03015
H          3.22585        0.07560        0.81285
H          3.05658        0.10852       -0.96541
H          1.85442       -1.87714       -0.83485
H          1.59379       -1.38059        1.95770
H          1.27411        3.25832        0.01764
H          2.65336        2.64464       -0.90392
H          2.71864        2.70230        0.86943
