24

C          2.93491       -1.48481       -0.00156
C          3.59479       -0.26398       -0.00005
C          2.85244        0.91036       -0.00028
C          1.44706        0.86081       -0.00128
C          0.74733       -0.36015       -0.00226
C          1.53475       -1.53070       -0.00308
C         -0.73690       -0.38847       -0.00180
C         -1.48260        0.80485       -0.00197
C         -0.79890        2.11216       -0.00255
O         -1.43213        3.15967       -0.00393
C          0.71391        2.14110       -0.00116
O          1.30668        3.21193        0.00012
C         -2.88891        0.80073       -0.00116
C         -3.58590       -0.40108       -0.00004
C         -2.87995       -1.59575        0.00035
C         -1.47902       -1.58820       -0.00050
H          3.50712       -2.41028       -0.00144
H          4.68117       -0.22483        0.00115
H          3.36972        1.86902        0.00051
H          1.08536       -2.51988       -0.00461
H         -3.44234        1.73898       -0.00116
H         -4.67307       -0.40343        0.00073
H         -3.41642       -2.54240        0.00144
H         -0.99232       -2.55960        0.00009
