27

C          3.57469       -1.06106       -0.31911
C          3.68218        0.29366       -0.62216
C          2.58800        1.13812       -0.43372
C          1.37183        0.62556        0.03000
C          1.25386       -0.74377        0.33700
C          2.36812       -1.57714        0.16874
N          0.01601       -1.31967        0.67080
C         -1.23332       -0.76580        0.34038
C         -1.37816        0.59926        0.03599
S         -0.01371        1.74358        0.19702
C         -2.60593        1.08682       -0.42494
C         -3.68629        0.22484       -0.62812
C         -3.54718       -1.12851       -0.32434
C         -2.33224       -1.61631        0.16701
O         -4.80572        0.82218       -1.13682
C         -5.88909       -0.03215       -1.48017
H          4.41986       -1.72441       -0.48293
H          4.61154        0.69080       -1.02000
H          2.68260        2.19391       -0.67770
H          2.29964       -2.64053        0.37225
H          0.02637       -2.27685        0.99347
H         -2.72094        2.14140       -0.66299
H         -4.35427       -1.83633       -0.47839
H         -2.23753       -2.67977        0.36851
H         -6.68642        0.58999       -1.89751
H         -6.28803       -0.53444       -0.59313
H         -5.59446       -0.75676       -2.24704
