33

C         -3.15301        0.21797        0.01860
C         -2.78581       -1.07231       -0.00524
C         -1.37286       -1.51977       -0.06984
O         -1.07210       -2.70399       -0.11533
C         -0.43937       -0.41438       -0.05816
C         -0.80637        0.97775       -0.01813
C         -2.21059        1.37143       -0.01947
O         -2.64920        2.51467       -0.06287
C          0.37261        1.75424        0.00926
N          1.38464        0.83146       -0.05269
C          0.92491       -0.45045       -0.08682
C          2.02136       -1.43612       -0.14265
C          3.23172       -0.57544        0.27106
C          2.83910        0.87688       -0.05679
C          0.59311        3.21527        0.09643
C         -0.27047        4.03626        0.83513
C         -0.08901        5.42361        0.89904
C          0.99582        6.01640        0.26317
C          1.88485        5.22216       -0.45115
C          1.67220        3.84045       -0.54885
H         -4.20099        0.49601        0.06026
H         -3.51954       -1.87016        0.01719
H          2.14411       -1.81824       -1.16119
H          1.87697       -2.27621        0.54267
H          4.15484       -0.88396       -0.22880
H          3.39489       -0.67115        1.35232
H          3.15869        1.15235       -1.06566
H          3.19572        1.58674        0.69219
H         -1.11520        3.61495        1.37277
H         -0.80220        6.03524        1.44639
H          1.14166        7.09155        0.31967
H          2.73886        5.67683       -0.94667
H          2.36703        3.27221       -1.15714
