27

C          3.67969        0.83088        0.00208
C          3.82762       -0.55256        0.00027
C          2.68806       -1.35745       -0.00236
C          1.40263       -0.79829       -0.00288
C          1.24793        0.59323       -0.00363
C          2.39831        1.39746        0.00167
N         -0.01684        1.20127        0.00624
C         -1.27098        0.56089       -0.00386
C         -1.41038       -0.84400       -0.00261
S          0.02311       -1.92168       -0.00285
C         -2.70844       -1.39795       -0.00239
C         -3.84035       -0.57599       -0.00148
C         -3.69885        0.80554       -0.00029
C         -2.42379        1.36787       -0.00023
Cl        -3.00508       -3.10792       -0.00205
O          5.00728       -1.24243        0.00201
C          6.20586       -0.47882        0.00731
H          4.53538        1.49794        0.00524
H          2.81140       -2.43843       -0.00267
H          2.30886        2.48083        0.00588
H         -0.02684        2.21160       -0.02802
H         -4.83643       -1.01394       -0.00071
H         -4.57883        1.44465        0.00159
H         -2.33369        2.45159        0.00309
H          7.04646       -1.17940        0.01148
H          6.27905        0.13530        0.91101
H          6.28691        0.13443       -0.89624
