39

C         -3.23820        0.06542        0.05468
C         -2.78697       -1.22070        0.00881
C         -1.31851       -1.54639       -0.05363
O         -0.89823       -2.69975       -0.10018
C         -0.45972       -0.40546       -0.05066
C         -0.86757        0.95730       -0.00483
C         -2.28520        1.28584        0.04837
O         -2.73854        2.42368        0.08707
C          0.29448        1.76502       -0.01139
N          1.33291        0.87215       -0.05648
C          0.89961       -0.41245       -0.08694
C          2.00805       -1.38076       -0.14304
C          3.20845       -0.49638        0.24399
C          2.78763        0.95507       -0.07577
C          0.52586        3.19817        0.05803
O          1.63522        3.71833        0.08847
O         -0.63556        3.87961        0.17555
C         -0.56091        5.19909        0.73201
C         -0.66973        5.07156        2.24140
C         -3.53594       -2.53136        0.00846
O         -4.55202        0.49303        0.11250
C         -5.66769       -0.37033        0.12114
H          2.11388       -1.77430       -1.15875
H          1.87649       -2.21268        0.55480
H          4.12531       -0.79925       -0.27020
H          3.38941       -0.59538        1.32261
H          3.08654        1.25344       -1.08442
H          3.13919        1.66018        0.67978
H         -1.40753        5.77641        0.34509
H          0.35538        5.72388        0.43927
H         -1.60543        4.56972        2.51246
H         -0.63797        6.04869        2.72906
H          0.14264        4.45194        2.63600
H         -4.61609       -2.48590        0.04730
H         -3.23107       -3.13199        0.87441
H         -3.29377       -3.09664       -0.90009
H         -6.57312        0.24175        0.16173
H         -5.66606       -0.99774        1.01734
H         -5.71646       -0.95254       -0.80386
