34

C         -0.63624        1.20327        0.48204
C          0.59162        0.91104        0.03562
N          1.00440       -0.38744       -0.23210
C          0.23336       -1.46922        0.24721
C         -1.02548       -1.27254        0.70509
C         -1.63770        0.10831        0.71395
C          0.80304       -2.81160        0.04670
C          1.40467       -3.41866        1.08745
C          2.23661       -4.65254        0.91566
C          2.22842       -5.16656       -0.49310
C          1.58763       -4.53460       -1.49749
N          0.89528       -3.32262       -1.27466
C          0.26793       -2.56279       -2.38314
C          0.76317       -1.11167       -2.54091
C          1.76184       -0.62722       -1.48058
C          1.62558       -5.14263       -2.87656
H         -0.93548        2.23730        0.62491
H          1.32623        1.67738       -0.19051
H         -1.65626       -2.10915        0.97200
H         -2.13957        0.27813        1.67011
H         -2.39968        0.16534       -0.07621
H          1.39380       -2.95817        2.07028
H          1.86499       -5.42913        1.58655
H          3.26966       -4.42653        1.20575
H          2.77712       -6.08471       -0.67396
H         -0.82309       -2.57668       -2.24330
H          0.41965       -3.05035       -3.34964
H         -0.12255       -0.45892       -2.52922
H          1.20364       -0.98800       -3.53465
H          2.23627        0.30071       -1.82084
H          2.58175       -1.33771       -1.32252
H          2.18941       -6.08140       -2.90116
H          2.10707       -4.46173       -3.58575
H          0.61108       -5.36690       -3.22328
