48

N         -1.40341       -0.12961       -0.08847
C         -0.82299        1.13525       -0.01407
C          0.50066        1.35353       -0.01646
C          1.47470        0.19723       -0.15637
C          0.77799       -1.14920       -0.02340
C         -0.56110       -1.23731       -0.01148
C          2.71796        0.28578        0.76901
C          2.39858        0.32679        2.25300
C          3.06879        1.15093        3.07230
N          4.04915        2.04448        2.64364
C          4.23402        2.20164        1.27303
C          3.63669        1.42643        0.35458
C          4.96995        2.61459        3.57616
C          5.44257        1.85261        4.66413
C          6.35411        2.37814        5.58076
C          6.80621        3.69083        5.41708
C          6.36676        4.46553        4.33837
C          5.45642        3.92425        3.42481
N          7.74855        4.25761        6.38480
O          8.10571        3.53990        7.32972
O          8.12813        5.42361        6.20984
C         -2.78385       -0.28042       -0.43169
C         -3.39352        0.59915       -1.35079
C         -4.73132        0.45420       -1.72300
C         -5.48517       -0.58445       -1.16994
C         -4.90725       -1.47541       -0.25869
C         -3.56458       -1.32051        0.10197
N         -6.89180       -0.74145       -1.55103
O         -7.36554        0.06982       -2.36004
O         -7.52656       -1.67724       -1.04055
H         -1.52053        1.96423        0.06545
H          0.88659        2.36615        0.04336
H          1.84357        0.23472       -1.19153
H          1.38189       -2.05002        0.00542
H         -1.04205       -2.20891        0.01352
H          3.30155       -0.63288        0.60944
H          1.64931       -0.34927        2.65037
H          2.85650        1.16785        4.13760
H          4.93833        2.96751        0.96611
H          3.84898        1.57048       -0.69957
H          5.12433        0.81837        4.78503
H          6.69636        1.75286        6.40244
H          6.71165        5.48790        4.19748
H          5.10807        4.54794        2.60446
H         -2.81075        1.39059       -1.82059
H         -5.15794        1.14888       -2.44305
H         -5.48054       -2.28905        0.18051
H         -3.13805       -2.01093        0.82574
