46

N          1.04731       -0.45048        0.81417
C         -0.18740       -0.53891        1.45872
C         -1.13350        0.40686        1.40771
C         -0.93893        1.65330        0.56779
C          0.51696        1.78643        0.12723
C          1.41199        0.78061        0.22624
C          2.81875        0.99319       -0.28121
C         -1.95517        1.67372       -0.63455
C         -1.80709        0.44639       -1.51186
C         -1.10223        0.52976       -2.64960
N         -0.58583        1.72894       -3.14950
C         -1.10762        2.93327       -2.61790
C         -1.79931        2.93852       -1.45875
C         -0.91836        4.22881       -3.35705
C          0.79363        1.71383       -3.70849
C          0.99186        0.73374       -4.85062
O          2.03263        0.07469       -4.94665
C         -0.03185        0.68136       -5.94889
C          1.93747       -1.63120        0.78174
C          1.85017       -2.39173       -0.53531
O          2.87094       -2.73247       -1.14332
C          0.49809       -2.82884       -1.03877
H         -0.35509       -1.45885        2.01139
H         -2.07926        0.27454        1.92374
H         -1.14876        2.51644        1.21455
H          0.80631        2.73580       -0.31474
H          2.93290        1.95929       -0.78717
H          3.10034        0.22304       -1.00608
H          3.52943        0.97688        0.55065
H         -2.98160        1.66796       -0.23964
H         -2.17647       -0.50610       -1.15479
H         -0.87194       -0.36103       -3.22545
H         -2.20586        3.85895       -1.04976
H         -0.62713        4.06923       -4.39889
H         -0.14853        4.83370       -2.86680
H         -1.85167        4.80287       -3.37600
H          1.48252        1.42796       -2.90371
H          1.10644        2.69842       -4.06520
H         -0.96189        1.17300       -5.65858
H         -0.25167       -0.36587       -6.17392
H          0.36995        1.18294       -6.83746
H          1.69195       -2.33511        1.58528
H          2.97911       -1.33359        0.94401
H         -0.29178       -2.61912       -0.31684
H          0.51248       -3.91009       -1.20382
H          0.27603       -2.31476       -1.97661
