36

N         -1.42902       -0.10975        0.10659
C         -0.83793        1.14676        0.16433
C          0.48480        1.34163        0.06946
C          1.42122        0.17409       -0.18370
C          0.73420       -1.15761        0.09995
C         -0.60550       -1.22743        0.17796
C          1.99705        0.17922       -1.64271
C          2.82199        1.42356       -1.95452
C          2.67153        2.08824       -3.11261
N          1.75897        1.72338       -4.09783
C          0.87713        0.68645       -3.82616
C          0.93764       -0.06124       -2.71634
C          1.83351        2.29125       -5.45801
C          0.95676        3.52659       -5.60925
Cl         1.03201        4.13418       -7.28587
C         -2.83732       -0.23613       -0.33058
C         -3.71273       -0.92690        0.70705
Cl        -5.38811       -1.05753        0.10938
H         -1.52182        1.98316        0.27509
H          0.90236        2.34058        0.11425
H          2.25244        0.26034        0.53020
H          1.34147       -2.05526        0.14841
H         -1.11443       -2.17999        0.27724
H          2.69449       -0.66966       -1.70966
H          3.56726        1.74263       -1.23441
H          3.28440        2.95259       -3.35106
H          0.12994        0.49303       -4.59087
H          0.22921       -0.87049       -2.58157
H          1.53123        1.52825       -6.18762
H          2.87705        2.53627       -5.69749
H          1.28930        4.33351       -4.95027
H         -0.09096        3.30546       -5.38528
H         -2.85807       -0.78851       -1.27812
H         -3.25301        0.75710       -0.54965
H         -3.73124       -0.36578        1.64452
H         -3.36449       -1.94211        0.91717
