40

N         -1.43403       -0.12140        0.08191
C         -0.82162        1.12574        0.17542
C          0.51142        1.28908        0.10463
C          1.42203        0.09920       -0.17789
C          0.70478       -1.21754        0.05649
C         -0.63465       -1.25799        0.13296
C          2.00291        0.19723       -1.62804
C          0.93119        0.19181       -2.71822
C          1.03027       -0.59161       -3.79880
N          2.09335       -1.45608       -4.01977
C          3.05560       -1.58964       -3.02091
C          3.06798       -0.85767       -1.89781
C          2.25911       -2.12750       -5.32589
C          3.05687       -1.24967       -6.31684
N          4.42690       -0.94778       -5.87474
C         -2.86090       -0.23314       -0.26905
C         -3.02577       -0.34084       -1.80218
N         -4.42302       -0.50861       -2.21878
H         -1.49542        1.96689        0.29428
H          0.95060        2.27727        0.17576
H          2.24662        0.15103        0.54692
H          1.28687       -2.13392        0.09860
H         -1.16832       -2.19685        0.22520
H          2.50968        1.17011       -1.70576
H          0.07064        0.84282       -2.60495
H          0.26307       -0.58750       -4.56863
H          3.82662       -2.32510       -3.23030
H          3.86032       -0.99315       -1.16942
H          1.27474       -2.34267       -5.76180
H          2.75554       -3.09709       -5.19606
H          2.52823       -0.30488       -6.48065
H          3.11412       -1.76461       -7.28132
H          4.35168       -0.45559       -4.97866
H          4.84677       -0.28110       -6.52032
H         -3.41775        0.63556        0.10395
H         -3.29539       -1.11646        0.21593
H         -2.44313       -1.18653       -2.18708
H         -2.62607        0.56115       -2.28011
H         -4.76756       -1.40706       -1.88072
H         -4.45640       -0.56324       -3.23519
