28

C          3.49152       -1.09279       -0.56219
C          3.61935        0.27268       -0.77410
C          2.55545        1.12094       -0.47122
C          1.36684        0.60379        0.06482
C          1.24490       -0.77033        0.34493
C          2.31292       -1.61034       -0.01596
N          0.04057       -1.32682        0.90451
C         -1.18892       -0.76767        0.38632
C         -1.30491        0.59964        0.07175
S          0.03221        1.73442        0.37295
C         -2.50047        1.11584       -0.45229
C         -3.58815        0.27903       -0.68814
C         -3.48612       -1.07443       -0.39547
C         -2.30339       -1.58982        0.14183
C          0.00192       -2.36104        1.85429
O         -1.03143       -2.93162        2.22585
C          1.27156       -2.75204        2.58261
H          4.30591       -1.76233       -0.82939
H          4.53432        0.68113       -1.20071
H          2.65297        2.18753       -0.66694
H          2.23173       -2.68962        0.08759
H         -2.58869        2.17571       -0.68050
H         -4.50810        0.68426       -1.10379
H         -4.32662       -1.73924       -0.58547
H         -2.26550       -2.66030        0.32175
H          2.11640       -2.08441        2.42866
H          1.54130       -3.77256        2.29526
H          1.06571       -2.73272        3.65841
