44

N          0.48595       -1.12775        0.04372
C         -0.88832       -1.26453       -0.14122
C         -1.74372       -0.23685       -0.14092
C         -1.24903        1.16259        0.15673
C          0.25521        1.25384       -0.03521
C          1.04704        0.16317       -0.04816
C          2.53019        0.34502       -0.23110
C         -1.65694        1.59058        1.60625
C         -3.16510        1.56841        1.76625
C         -3.85655        2.71262        1.76401
N         -3.26338        3.97465        1.69724
C         -1.87607        4.06940        1.93380
C         -1.10809        2.96288        1.94222
C         -1.19709        5.37682        2.25290
C         -4.12190        5.12614        1.33466
C         -4.09102        5.38641       -0.17951
O         -4.52368        4.25633       -0.93672
C          1.28843       -2.33799        0.31915
C          1.40940       -2.59906        1.82786
O          0.14280       -2.78451        2.45890
H         -1.23777       -2.28197       -0.29027
H         -2.80192       -0.39707       -0.31436
H         -1.70706        1.83717       -0.58181
H          0.67763        2.24903       -0.14100
H          2.79162        1.38647       -0.46090
H          2.89417       -0.25837       -1.06817
H          3.06961        0.06500        0.67869
H         -1.24221        0.88341        2.34097
H         -3.67470        0.61312        1.83179
H         -4.94360        2.70693        1.79925
H         -0.04755        3.02574        2.16786
H         -1.88008        6.21467        2.38589
H         -0.49208        5.63790        1.45663
H         -0.63345        5.28687        3.19011
H         -3.83221        6.03171        1.87224
H         -5.15591        4.91880        1.63768
H         -3.08690        5.65610       -0.52057
H         -4.76658        6.21304       -0.41928
H         -3.87254        3.55317       -0.74937
H          2.28707       -2.25930       -0.11999
H          0.81740       -3.20604       -0.15706
H          1.92423       -1.77958        2.33749
H          1.98550       -3.51535        1.98823
H         -0.30345       -1.91769        2.40994
