35

C          3.49991       -1.07346       -0.47439
C          3.61289        0.28375       -0.75387
C          2.53769        1.13361       -0.50308
C          1.34278        0.62834        0.02504
C          1.22861       -0.73291        0.35342
C          2.32094       -1.57715        0.08006
N          0.02073       -1.28289        0.91400
C         -1.20824       -0.76024        0.36925
C         -1.33221        0.60461        0.03776
S          0.00089        1.75616        0.30425
C         -2.53403        1.11387       -0.47635
C         -3.61985        0.27147       -0.69502
C         -3.51174       -1.07870       -0.38777
C         -2.32326       -1.58550        0.14901
C          0.03369       -2.35799        1.82465
O         -0.84239       -3.21560        1.94673
C          1.13707       -2.41203        2.84231
C          1.72257       -1.25006        3.36506
C          2.73076       -1.33934        4.32723
C          3.13120       -2.58572        4.80341
C          2.52182       -3.74550        4.32471
C          1.52623       -3.66063        3.34814
H          4.32560       -1.74539       -0.69653
H          4.53162        0.68019       -1.17908
H          2.63446        2.19327       -0.72989
H          2.25415       -2.64921        0.25171
H         -2.62839        2.17147       -0.71202
H         -4.54442        0.66745       -1.10581
H         -4.34887       -1.74839       -0.56967
H         -2.28412       -2.65390        0.34082
H          1.39816       -0.26457        3.04311
H          3.19445       -0.43433        4.71195
H          3.90644       -2.65314        5.56321
H          2.81157       -4.71441        4.72173
H          1.04125       -4.56930        2.99720
