30

C          1.84462        0.00221       -0.14268
C          1.09570        1.29056        0.00567
C         -0.23666        1.29349        0.13871
N         -1.01800        0.14015        0.15349
C         -0.37813       -1.12096        0.15927
C          0.96681       -1.20695        0.01876
C         -1.14727       -2.37988        0.29341
C         -1.13245       -3.25354       -0.74033
C         -1.86339       -4.56533       -0.70698
C         -2.70730       -4.73238        0.52107
C         -2.66814       -3.82331        1.50307
N         -1.86877       -2.68174        1.47362
C         -1.75209       -1.86700        2.68723
C         -2.47859        0.27035        0.08950
H          2.64317       -0.03584        0.60559
H          2.31568       -0.02541       -1.13229
H          1.65130        2.22286       -0.01242
H         -0.78780        2.22497        0.23081
H          1.46250       -2.17233        0.00849
H         -0.56852       -3.03444       -1.64210
H         -1.13687       -5.38381       -0.75510
H         -2.50187       -4.63734       -1.59248
H         -3.33731       -5.61094        0.60354
H         -3.26374       -3.94605        2.40308
H         -1.96484       -2.46329        3.58298
H         -2.47296       -1.04686        2.67844
H         -0.74334       -1.46257        2.81479
H         -2.77053        1.23428       -0.34553
H         -2.91984        0.23185        1.08732
H         -2.93015       -0.50466       -0.53704
