38

N          3.06753       -3.34100       -3.70274
C          3.61251       -2.11959       -4.09091
C          3.52359       -0.99952       -3.36022
C          2.85267       -0.98390       -1.98772
C          2.21099       -2.33042       -1.67914
C          2.35717       -3.38337       -2.50419
C          1.87281        0.22089       -1.76699
C          2.62350        1.54432       -1.90082
C          2.44343        2.32133       -2.97817
N          1.51561        2.03516       -3.98368
C          0.59420        1.01587       -3.73980
C          0.68541        0.16830       -2.70802
C          1.81347        2.40380       -5.39256
C          1.82985        3.90726       -5.64455
O          2.55808        4.43605       -6.48222
N          0.91446        4.64538       -4.95565
C          3.54891       -4.60834       -4.32258
C          3.11307       -4.83094       -5.77185
O          3.46270       -5.81824       -6.41734
N          2.31150       -3.89349       -6.34923
H          4.13572       -2.12407       -5.04399
H          3.97135       -0.08368       -3.72995
H          3.66829       -0.86539       -1.25824
H          1.66848       -2.44205       -0.74744
H          1.93370       -4.35097       -2.25272
H          1.48156        0.18217       -0.74049
H          3.36343        1.79961       -1.14881
H          3.04349        3.21392       -3.14086
H         -0.20690        0.93435       -4.46813
H         -0.05386       -0.61575       -2.56602
H          1.07146        1.97242       -6.07441
H          2.79307        1.99302       -5.66255
H          0.44317        4.23704       -4.15434
H          0.93567        5.64956       -5.06463
H          3.19213       -5.47358       -3.75105
H          4.64523       -4.62154       -4.29650
H          1.91797       -3.14468       -5.79085
H          1.99043       -4.04672       -7.29488
