52

N          4.39805       -4.16256        4.30087
C          5.59366       -3.46924        4.11468
C          6.67623       -3.62386        4.89113
C          6.71150       -4.61365        6.05705
C          5.34525       -5.27199        6.23477
C          4.32007       -5.01572        5.40471
C          7.31148       -4.04580        7.40718
C          8.40091       -3.00683        7.15505
C          8.11351       -1.70092        7.28352
N          6.88382       -1.24859        7.75895
C          6.05976       -2.16537        8.41297
C          6.24169       -3.48684        8.32828
C          6.34669        0.07818        7.35090
C          5.08745       -0.12263        6.52363
N          4.04280       -0.28922        5.83734
C          6.06616        0.97920        8.57325
C          6.80831        0.85189        9.76281
C          6.52818        1.64711       10.87802
C          5.51832        2.60303       10.82100
C          4.79561        2.77457        9.64544
C          5.07317        1.98042        8.52969
C          3.38204       -4.28011        3.19114
C          3.93811       -5.14001        2.10990
N          4.34657       -5.81520        1.24939
C          2.83903       -2.94061        2.67366
C          2.33337       -2.78088        1.37062
C          1.84112       -1.54498        0.92906
C          1.83650       -0.44635        1.78104
C          2.27867       -0.59811        3.08736
C          2.73969       -1.84064        3.53056
H          5.61029       -2.78328        3.27013
H          7.57482       -3.06544        4.65214
H          7.39958       -5.41039        5.73833
H          5.21052       -5.96075        7.06283
H          3.35292       -5.48587        5.55546
H          7.78170       -4.87676        7.95231
H          9.36314       -3.33518        6.77807
H          8.82524       -0.92720        7.01032
H          5.23614       -1.74463        8.98452
H          5.58300       -4.16802        8.85333
H          7.07991        0.60974        6.72967
H          7.59821        0.10661        9.84587
H          7.09477        1.51176       11.79610
H          5.29500        3.21452       11.69139
H          4.00724        3.52222        9.59605
H          4.47778        2.15121        7.63357
H          2.49844       -4.79962        3.59071
H          2.30969       -3.61252        0.66750
H          1.46397       -1.44162       -0.08548
H          1.47792        0.51895        1.43634
H          2.27145        0.24827        3.77259
H          3.04702       -1.94936        4.56707
