25

C          3.56448       -1.04609       -0.34345
C          3.65099        0.29449       -0.69420
C          2.55074        1.12506       -0.50390
C          1.35182        0.61439        0.01883
C          1.24724       -0.73956        0.38580
C          2.38033       -1.55260        0.20026
N          0.02026       -1.30677        0.87842
C         -1.21175       -0.74513        0.39189
C         -1.33298        0.60874        0.03651
S          0.00693        1.75448        0.23863
C         -2.54314        1.10831       -0.46847
C         -3.63445        0.26452       -0.65979
C         -3.52673       -1.08013       -0.33196
C         -2.33220       -1.57813        0.19594
C          0.01258       -2.40348        1.74245
O          0.96075       -3.02532        2.20996
H          4.41238       -1.70825       -0.50011
H          4.56930        0.69177       -1.11768
H          2.62755        2.17561       -0.77659
H          2.35397       -2.61598        0.42619
H         -2.63713        2.16049       -0.72899
H         -4.55987        0.65660       -1.07330
H         -4.36536       -1.75100       -0.50526
H         -2.28253       -2.64816        0.38210
H         -1.00150       -2.66708        2.08123
