18

C          3.13910       -0.29424       -0.01751
C          2.14582       -1.27707       -0.05402
C          0.79205       -0.91880       -0.02632
C          0.45320        0.43956        0.00579
C          1.44720        1.42564        0.03771
C          2.79086        1.05445        0.03643
C         -0.97080        0.83518        0.01101
O         -1.30592        2.01028        0.00106
C         -2.01757       -0.27417        0.02860
O         -3.21421       -0.02426        0.03774
C         -1.54143       -1.67167        0.03595
C         -0.23543       -1.96027       -0.00158
H          4.18808       -0.58275       -0.02462
H          2.44526       -2.32255       -0.09558
H          1.17768        2.47970        0.07126
H          3.56541        1.81701        0.07723
H         -2.30469       -2.43911        0.07548
H          0.08721       -2.99780        0.00655
