29

C         -4.03649       -0.68291        0.04206
C         -4.03175        0.70993        0.02531
C         -2.81938        1.40140        0.00002
C         -1.60559        0.69820       -0.00941
C         -1.60844       -0.68935        0.00142
C         -2.82876       -1.38196        0.02872
C         -0.34106       -1.44339       -0.02346
O         -0.41399       -2.66571       -0.07750
C          0.95246       -0.70400        0.00527
C          0.95409        0.70145       -0.01063
C         -0.33357        1.43540       -0.03040
O         -0.35216        2.66357       -0.05580
C          2.17048        1.41932       -0.00436
C          3.37819        0.71769        0.02878
C          3.38114       -0.68119        0.05623
C          2.17911       -1.38365        0.04250
O          2.23716       -2.74904        0.07245
S          4.98019        1.56801        0.03052
O          4.94977        2.32042       -1.21845
O          4.94035        2.33165        1.27372
O          5.93672        0.45907        0.03899
O          2.18176        2.78743       -0.02859
H         -4.97736       -1.22734        0.06388
H         -4.97015        1.25907        0.03218
H         -2.82297        2.49007       -0.01221
H         -2.83913       -2.47091        0.03934
H          4.33226       -1.20686        0.08885
H          3.16696       -3.03159        0.05776
H          1.26667        3.13433       -0.04865
