27

C         -2.73406       -0.55873        0.04672
C         -2.65107        0.83345        0.00564
C         -1.40288        1.46103       -0.01933
C         -0.23161        0.69286        0.00178
C         -0.31981       -0.69796        0.02296
C         -1.57041       -1.32668        0.04718
C          0.90021       -1.51969        0.02363
O          0.86242       -2.74114       -0.05236
C          2.19165       -0.82423        0.14031
C          2.29996        0.51200        0.14870
C          1.08668        1.36285        0.01442
O          1.17271        2.57990       -0.08215
C          3.59894        1.24404        0.34857
O          4.52578        0.45702        1.12022
C          4.32510        0.49988        2.46810
O          3.44742        1.13758        3.03330
C          5.30702       -0.37617        3.18072
H         -3.70552       -1.04734        0.07866
H         -3.55991        1.43086       -0.00051
H         -1.34900        2.54819       -0.04714
H         -1.63872       -2.41269        0.07509
H          3.05561       -1.47386        0.23222
H          3.47078        2.22310        0.82415
H          4.06411        1.42431       -0.62699
H          5.97014       -0.87960        2.47142
H          4.76286       -1.14026        3.74291
H          5.91356        0.23523        3.85265
