44

N          6.36482       -1.10438       -0.83289
C          6.20735       -1.00173        0.54518
C          5.01904       -0.89427        1.15576
C          3.71436       -0.86301        0.36569
C          3.97883       -0.87406       -1.13610
C          5.22536       -0.99051       -1.62822
C          2.76212        0.30801        0.79016
C          2.36204        0.15378        2.25386
C          2.88768        0.97042        3.18404
N          3.74193        2.02851        2.88354
C          3.85977        2.40794        1.54518
C          3.38845        1.66881        0.52894
C          4.66932        2.51603        3.85953
C          5.27844        1.62959        4.77192
C          6.22375        2.07582        5.69880
C          6.57530        3.42094        5.73559
C          5.98925        4.31561        4.84283
C          5.04808        3.86566        3.91129
C          7.62025       -1.51031       -1.38730
C          8.39051       -2.50784       -0.75571
C          9.60719       -2.93651       -1.29012
C         10.08173       -2.37082       -2.46851
C          9.33952       -1.37999       -3.10989
C          8.11846       -0.95662       -2.57593
H          7.12866       -0.99068        1.12094
H          4.98426       -0.81728        2.23684
H          3.19489       -1.80557        0.59352
H          3.12982       -0.82354       -1.80864
H          5.39356       -1.04768       -2.69844
H          1.83652        0.25301        0.20168
H          1.70651       -0.66106        2.53594
H          2.66382        0.84324        4.23845
H          4.40007        3.32618        1.35051
H          3.52032        1.99180       -0.49727
H          5.05200        0.56725        4.73747
H          6.69045        1.36872        6.37910
H          7.31096        3.77069        6.45430
H          6.26433        5.36614        4.86799
H          4.59822        4.58699        3.23474
H          8.02387       -2.98611        0.14907
H         10.17215       -3.71673       -0.78803
H         11.02914       -2.70202       -2.88714
H          9.71517       -0.93335       -4.02813
H          7.56964       -0.16725       -3.08334
