18

C         -2.69124        0.79977        0.00028
C         -1.45790        1.45357       -0.01809
C         -0.27218        0.70896        0.00593
C         -0.32404       -0.68511        0.03375
C         -1.56254       -1.33860        0.04678
C         -2.74353       -0.59401        0.03548
C          0.92114       -1.47856        0.05757
O          0.90920       -2.70162        0.02074
C          2.20050       -0.74796        0.13658
C          2.24998        0.58586        0.11791
C          1.02800        1.40820        0.01416
O          1.10927        2.62759       -0.05090
H         -3.61226        1.37870       -0.00958
H         -1.42422        2.54153       -0.04423
H         -1.61057       -2.42594        0.07287
H         -3.70523       -1.10205        0.05614
H          3.09566       -1.35438        0.20629
H          3.18854        1.12540        0.17365
