21

C         -2.73949       -0.60731        0.04429
C         -2.70722        0.79357       -0.01551
C         -1.46357        1.44386       -0.01943
C         -0.27374        0.70533        0.01445
C         -0.31743       -0.68794        0.04831
C         -1.55256       -1.34611        0.06850
C          0.93279       -1.47381        0.06525
O          0.92838       -2.69650        0.01709
C          2.20731       -0.73433        0.14575
C          2.24870        0.60046        0.12525
C          1.01945        1.41160        0.01730
O          1.09411        2.63066       -0.06098
C         -3.97850        1.59070       -0.05399
Br        -4.51846        2.03751        1.75665
H         -3.69132       -1.13638        0.07207
H         -1.41840        2.53271       -0.04630
H         -1.59463       -2.43353        0.10603
H          3.10769       -1.33442        0.21425
H          3.18399        1.14652        0.17896
H         -4.79882        1.03001       -0.51250
H         -3.85134        2.53023       -0.60035
