40

N         -1.38317       -0.13867        0.11228
C         -0.77378        1.10411        0.26743
C          0.55585        1.27661        0.17994
C          1.46298        0.10135       -0.17390
C          0.75734       -1.22647        0.03503
C         -0.57890       -1.27482        0.12069
C          2.00432        0.25241       -1.63749
C          0.90338        0.25259       -2.69838
C          0.99998       -0.48490       -3.81316
N          2.08421       -1.30123       -4.09570
C          3.07292       -1.44755       -3.12933
C          3.08685       -0.76954       -1.96988
C          2.23881       -1.91644       -5.41353
C         -2.78332       -0.23206       -0.33808
C         -3.80657       -0.27778        0.77137
C         -5.10513        0.19230        0.50874
C         -6.11061        0.08491        1.46859
C         -5.83701       -0.50311        2.69991
C         -4.55549       -0.97878        2.97400
C         -3.54728       -0.86975        2.01446
H         -1.45283        1.93149        0.43872
H          0.99489        2.26217        0.28784
H          2.30873        0.13474        0.52752
H          1.34672       -2.13711        0.04098
H         -1.11127       -2.21843        0.18684
H          2.48743        1.23622       -1.70036
H          0.02798        0.87219       -2.54105
H          0.21443       -0.47191       -4.56294
H          3.85559       -2.15615       -3.38295
H          3.89291       -0.91915       -1.26071
H          1.40121       -1.67696       -6.08020
H          2.30109       -3.00489       -5.32731
H          3.15285       -1.54752       -5.89281
H         -2.91705       -1.12719       -0.96060
H         -2.99451        0.62280       -0.99462
H         -5.34285        0.63654       -0.45616
H         -7.11193        0.44965        1.24946
H         -6.62114       -0.59587        3.44559
H         -4.34053       -1.44358        3.93225
H         -2.55678       -1.25541        2.24597
