21

C         -2.65936        0.80368        0.01798
C         -1.42520        1.45617       -0.01590
C         -0.23152        0.71865        0.00216
C         -0.28759       -0.67200        0.02999
C         -1.52670       -1.32811        0.06127
C         -2.71007       -0.58838        0.06297
C          0.95316       -1.46481        0.03180
O          0.92528       -2.68633       -0.04709
C          2.22432       -0.74064        0.15256
C          2.27964        0.59879        0.14773
C          1.06782        1.42938       -0.00079
O          1.04890        2.64742       -0.12719
S          3.84254        1.36968        0.36170
O          4.03274        2.15339       -0.85484
O          3.69004        2.13687        1.59659
O          4.79429        0.26237        0.48798
H         -3.57802        1.38533        0.01380
H         -1.39225        2.54438       -0.04882
H         -1.56926       -2.41528        0.09218
H         -3.66951       -1.09827        0.09970
H          3.11001       -1.35836        0.25565
