22

C         -2.74725       -0.59797        0.03974
C         -2.69836        0.79692       -0.01483
C         -1.46515        1.44746       -0.04201
C         -0.27780        0.70439        0.00026
C         -0.32279       -0.68827        0.06249
C         -1.56472       -1.33776        0.07669
C          0.92604       -1.47751        0.12948
O          0.89451       -2.70330        0.12995
C          2.22299       -0.75314        0.19342
C          2.23798        0.58526        0.10884
C          1.01858        1.39862       -0.01799
O          1.10097        2.61953       -0.11319
C          3.49547       -1.53020        0.38893
O          3.52892       -2.76340       -0.31174
H         -3.71093       -1.10353        0.05831
H         -3.61872        1.37613       -0.03425
H         -1.43052        2.53458       -0.08764
H         -1.61752       -2.42659        0.11593
H          3.16311        1.14987        0.16249
H          3.65430       -1.71813        1.45679
H          4.35521       -0.95156        0.03175
H          2.62222       -3.13520       -0.31141
