27

C          3.66327       -0.98575       -0.24779
C          3.75357        0.34771       -0.63634
C          2.64318        1.18381       -0.51445
C          1.43192        0.68073       -0.02968
C          1.33966       -0.65671        0.38865
C          2.46683       -1.48230        0.27352
N          0.10773       -1.23977        0.72681
C         -1.16180       -0.75702        0.35729
C         -1.32085        0.59049       -0.04282
S          0.02283        1.77377        0.04835
C         -2.55875        1.06463       -0.49430
C         -3.64182        0.20050       -0.60066
C         -3.49665       -1.13626       -0.23385
C         -2.26825       -1.62458        0.23343
O         -2.29909       -2.95120        0.58902
C         -1.21714       -3.76137        0.14098
H          4.51629       -1.64737       -0.37409
H          4.67901        0.73453       -1.05237
H          2.72227        2.22298       -0.82413
H          2.40261       -2.53554        0.53380
H          0.12543       -2.01909        1.35894
H         -2.67863        2.10848       -0.77592
H         -4.59485        0.56545       -0.97565
H         -4.34158       -1.81234       -0.33568
H         -1.60766       -4.76409       -0.05784
H         -0.48156       -3.87101        0.94403
H         -0.74735       -3.39396       -0.77709
