30

C          3.65960       -0.96504       -0.26820
C          3.73780        0.36710       -0.66059
C          2.63421        1.20582       -0.52146
C          1.42987        0.70550       -0.00932
C          1.34995       -0.63001        0.41681
C          2.47308       -1.46120        0.27820
N          0.12730       -1.20787        0.78615
C         -1.14371       -0.76093        0.37835
C         -1.32166        0.59112       -0.00350
S          0.01363        1.78755        0.09426
C         -2.56176        1.04945       -0.46503
C         -3.62704        0.16425       -0.59605
C         -3.45413       -1.17865       -0.26883
C         -2.21924       -1.65641        0.19558
O         -2.22128       -3.01111        0.43331
C         -1.03484       -3.74034        0.11825
C         -1.41283       -5.13465       -0.35191
H          4.50734       -1.62831       -0.41183
H          4.65852        0.75349       -1.09528
H          2.70401        2.24390       -0.83760
H          2.41063       -2.51159        0.53947
H          0.15571       -1.99872        1.40675
H         -2.69776        2.09323       -0.73597
H         -4.58456        0.51811       -0.97005
H         -4.28179       -1.87028       -0.40192
H         -0.44234       -3.84892        1.03084
H         -0.44187       -3.25975       -0.66832
H         -2.07015       -5.62632        0.37097
H         -0.51422       -5.74580       -0.48559
H         -1.94889       -5.08659       -1.30339
