31

C         -4.58217       -0.14847       -0.05062
C         -4.94347       -1.53505       -0.22951
C         -3.99701       -2.51259       -0.28924
C         -2.50984       -2.15644       -0.06018
N         -2.23938       -0.78853        0.12822
C         -3.30193        0.14695        0.10953
C         -0.91845       -0.18975        0.13989
C          0.45153       -0.77780        0.09529
C          0.74426       -2.22743        0.15203
N         -0.28706       -3.15975        0.60780
C         -1.60979       -3.18551        0.05398
C         -2.06942       -4.52461       -0.45570
C         -3.47160       -4.84795       -0.63640
C         -4.40522       -3.90441       -0.48611
C         -1.16473       -5.50591       -0.65146
C          0.04745       -5.48775        0.12351
C          0.31975       -4.40282        0.85461
Cl        -6.66537       -1.82060       -0.32167
H         -5.34627        0.63265       -0.10355
H         -2.97632        1.16992        0.18715
H         -0.94019        0.41921       -0.76404
H         -0.91805        0.37658        1.06859
H          1.03601       -0.27877        0.88771
H          0.96764       -0.38357       -0.79733
H          1.61305       -2.31869        0.82845
H          1.12146       -2.55655       -0.82694
H         -3.75586       -5.89383       -0.70370
H         -5.45492       -4.19593       -0.46705
H         -1.41996       -6.43171       -1.14196
H          0.61631       -6.39668        0.22926
H          1.12443       -4.36759        1.58481
