34

C         -4.38881       -0.00688       -0.02526
C         -4.85365       -1.36633       -0.12801
C         -3.93040       -2.38947       -0.20985
C         -2.46021       -2.10207        0.00664
N         -2.11423       -0.77299        0.21338
C         -3.09274        0.22389        0.13904
C         -0.75891       -0.26576        0.26500
C          0.59985       -0.87130        0.18405
C          0.79649       -2.33107        0.14061
N         -0.27633       -3.21051        0.61211
C         -1.61029       -3.17030        0.08283
C         -2.13432       -4.45338       -0.46980
C         -3.56739       -4.72328       -0.63761
C         -4.41853       -3.72151       -0.46120
C         -1.27915       -5.46776       -0.71346
C         -0.05064       -5.53587        0.03683
C          0.25434       -4.49173        0.80916
C         -6.35747       -1.52504       -0.14643
H         -5.06759        0.81519       -0.16822
H         -2.72597        1.24891        0.16450
H         -0.75023        0.34119       -0.63975
H         -0.74381        0.15539        1.26640
H          1.19915       -0.44703        1.01019
H          1.14532       -0.43166       -0.67197
H          1.68227       -2.51399        0.76966
H          1.09197       -2.62458       -0.87211
H         -3.86945       -5.74173       -0.73384
H         -5.47607       -3.97121       -0.42934
H         -1.58281       -6.38405       -1.21189
H          0.45845       -6.47068        0.10982
H          1.01895       -4.53805        1.58472
H         -6.88696       -0.56388       -0.12583
H         -6.67678       -2.06638        0.75233
H         -6.72373       -2.06481       -1.02737
