24

C          2.45823        0.69846        0.00036
C          2.45122       -0.69507        0.00152
C          1.23799       -1.38773        0.00166
C          0.02443       -0.68438        0.00059
C          0.03300        0.70501       -0.00087
C          1.25202        1.39900       -0.00082
C         -1.22804        1.46319       -0.00194
O         -1.20368        2.68837       -0.00431
C         -2.51404        0.70806        0.00028
C         -2.52432       -0.63918        0.00209
C         -1.25279       -1.42149        0.00120
O         -1.26013       -2.64748        0.00099
C         -3.77130       -1.48102        0.00501
C         -3.76583        1.54175       -0.00004
H          3.40078        1.24136        0.00064
H          3.39121       -1.24315        0.00223
H          1.24297       -2.47651        0.00264
H          1.26425        2.48792       -0.00127
H         -4.68965       -0.88691        0.00733
H         -3.80003       -2.11907        0.89475
H         -3.80430       -2.11917       -0.88451
H         -3.56702        2.61726       -0.00128
H         -4.36511        1.33201        0.89233
H         -4.36573        1.33001       -0.89150
