24

C          1.51867        0.11421       -0.04728
C          0.77026       -1.19624        0.00124
C         -0.56758       -1.21155        0.08777
N         -1.29668       -0.05557        0.15452
C         -0.72332        1.20131        0.07721
C          0.61620        1.32460       -0.00294
C         -1.60727        2.36112        0.12487
C         -1.62017        3.29510       -0.84743
C         -2.54437        4.48852       -0.78420
C         -3.41138        4.51219        0.45218
C         -3.32730        3.53037        1.36038
N         -2.47757        2.46985        1.19549
H          2.10731        0.14967       -0.97079
H          2.21729        0.15815        0.79561
H          1.33563       -2.11976       -0.04450
H         -1.14512       -2.13011        0.10884
H         -2.30749       -0.09943        0.07157
H          1.08650        2.30181       -0.03144
H         -0.96785        3.21175       -1.71036
H         -3.18699        4.49013       -1.67128
H         -1.93964        5.40154       -0.80774
H         -4.09373        5.34265        0.59215
H         -3.91977        3.51619        2.26952
H         -2.33322        1.82368        1.96421
