30

C         -2.44561        0.75232        0.00026
C         -1.30775        1.46682        0.00337
C         -0.04393        0.73426        0.00350
C         -0.03574       -0.74977        0.00283
C         -1.25659       -1.33386       -0.00012
N         -2.47687       -0.64205       -0.00169
C         -3.75311       -1.35423       -0.00479
C          1.26018       -1.46853        0.00416
C          2.53756       -0.66494        0.00072
C          2.40860        0.68175        0.00090
C          1.13509        1.38108        0.00348
N          3.76551       -1.37785       -0.00258
C          3.73910       -2.77204        0.00027
C          2.61735       -3.50047        0.00639
C          1.34454       -2.81883        0.00872
C          5.07981       -0.72776       -0.00888
H         -3.41841        1.23410       -0.00057
H         -1.31682        2.54932        0.00531
H         -1.38593       -2.40866       -0.00164
H         -3.61823       -2.44154       -0.00399
H         -4.33206       -1.09110       -0.89650
H         -4.33663       -1.09048        0.88376
H          3.26877        1.33819       -0.00091
H          1.18076        2.46603        0.00414
H          4.71397       -3.25094       -0.00265
H          2.63820       -4.58348        0.00852
H          0.47491       -3.46323        0.01302
H          5.04365        0.36286       -0.01225
H          5.64290       -1.03274       -0.89838
H          5.64883       -1.02746        0.87862
