40

C          0.76674        0.00610        0.54753
C          1.56888        0.70991        1.36140
N          2.42365        1.60013        0.67038
C          3.32597        1.04783       -0.23780
C          2.86459        0.00088       -0.98694
C          1.48885       -0.68210       -0.62232
C          0.39156       -0.92500       -1.66017
C          4.74092        1.37372        0.10157
C          5.53841        2.36318       -0.40919
C          6.84399        2.61715        0.38343
C          7.46946        1.28778        0.72558
C          6.60988        0.36118        1.17853
N          5.23252        0.67502        1.25851
C          4.91334        1.19007        2.65622
C          3.77211        2.14931        3.01979
C          3.41473        3.32721        2.11531
C          2.45732        3.01494        0.97396
C          7.86367        3.66375       -0.04516
H         -0.10308        0.58471        0.22746
H          2.29974        0.04064        1.84735
H          3.51803       -0.54272       -1.65893
H          1.77449       -1.67866       -0.25603
H          0.00570        0.00070       -2.09887
H         -0.46767       -1.40568       -1.15552
H          0.69932       -1.60917       -2.45245
H          5.24438        3.00619       -1.22312
H          6.49822        3.05826        1.33109
H          8.54510        1.13066        0.75076
H          6.88481       -0.61547        1.55889
H          5.81728        1.68624        3.03841
H          4.79969        0.29576        3.28667
H          4.07311        2.59817        3.97699
H          2.87791        1.58671        3.29935
H          4.31764        3.81303        1.73762
H          2.91696        4.09318        2.72459
H          2.73361        3.59558        0.08039
H          1.44050        3.34544        1.21950
H          8.40356        3.40132       -0.95526
H          8.61033        3.78602        0.75758
H          7.39095        4.64480       -0.16594
