37

C         -0.61803        1.25451        0.40829
C          0.59360        0.94451       -0.06405
N          1.00955       -0.35660       -0.31059
C          0.24686       -1.42824        0.20565
C         -0.98545       -1.22528        0.71001
C         -1.61480        0.16016        0.71291
C         -2.32979        0.45252        2.02463
C          0.80649       -2.77933        0.02195
C          1.38551       -3.41329        1.06102
C          2.13960       -4.71656        0.89756
C          2.17077       -5.18907       -0.53640
C          1.56358       -4.49263       -1.50527
N          0.88888       -3.29785       -1.29235
C          0.29638       -2.57166       -2.43633
C          0.76936       -1.12085       -2.60583
C          1.76598       -0.61919       -1.55043
C          1.53121       -5.79985        1.78309
H         -0.91030        2.28813        0.52288
H          1.31676        1.71002       -0.33644
H         -1.59994       -2.06648        1.01023
H         -2.37010        0.17517       -0.08473
H         -1.63995        0.43361        2.87429
H         -3.12233       -0.28197        2.20852
H         -2.80351        1.44189        1.99340
H          1.40152       -2.95367        2.04750
H          3.17614       -4.54767        1.21392
H          2.70815       -6.10010       -0.77389
H          1.58391       -4.83938       -2.53466
H         -0.80161       -2.60587       -2.34342
H          0.51505       -3.10077       -3.37034
H         -0.12075       -0.48009       -2.59749
H          1.20151       -1.00102       -3.60356
H          2.23368        0.30660       -1.90943
H          2.58699       -1.32513       -1.38537
H          0.48668       -5.99696        1.51424
H          1.55811       -5.50554        2.83831
H          2.08453       -6.74203        1.68801
