40

C         -0.50573        1.31232        0.00714
C          0.72714        0.90590       -0.32865
N          1.09921       -0.41810       -0.38020
C          0.26867       -1.41439        0.17756
C         -0.99562       -1.12999        0.54568
C         -1.56947        0.27734        0.36881
C         -2.64950        0.26331       -0.72129
C          0.81732       -2.77725        0.04478
C          1.32686       -3.47189        1.08340
C          2.27034       -4.65121        0.85202
C          2.27870       -5.13199       -0.59545
C          1.71703       -4.37187       -1.54061
N          1.11444       -3.15437       -1.28286
C          1.33296       -2.02598       -2.22415
C          2.03751       -0.88706       -1.43136
C          3.03218       -6.36966       -0.96793
C          3.69862       -4.22831        1.23964
C         -0.88222        2.75987       -0.05037
H          1.50486        1.59705       -0.63741
H         -1.67302       -1.91752        0.86091
H         -2.02606        0.56616        1.32232
H         -2.21674        0.10930       -1.71951
H         -3.19495        1.21550       -0.74964
H         -3.38989       -0.52683       -0.55545
H          1.21923       -3.10432        2.09971
H          1.94562       -5.47618        1.49708
H          1.74493       -4.63587       -2.59412
H          0.36187       -1.68464       -2.60985
H          1.95036       -2.32973       -3.07159
H          2.31065       -0.07063       -2.11492
H          2.95405       -1.25965       -0.95506
H          3.49940       -6.84159       -0.10009
H          3.83204       -6.12110       -1.67654
H          2.36895       -7.10245       -1.43520
H          4.09842       -3.47951        0.54219
H          4.38758       -5.08127        1.22491
H          3.73603       -3.79621        2.24495
H          0.00061        3.40313       -0.14234
H         -1.42160        3.06122        0.85061
H         -1.51487        2.95163       -0.92479
