46

C          0.78968        0.19091       -0.03428
C          0.34321       -0.99483       -0.47298
N         -1.00852       -1.27995       -0.38758
C         -1.68467       -0.87938        0.77828
C         -1.42784        0.40606        1.14798
C         -0.32060        1.17570        0.35494
C         -0.81904        1.81562       -0.97544
C         -2.26215       -2.02283        1.51356
C         -3.46853       -2.14181        2.13246
C         -3.82319       -3.54666        2.69846
C         -2.58079       -4.19020        3.33239
C         -1.40929       -3.85898        2.76086
N         -1.41134       -3.18486        1.52640
C         -1.55424       -4.21766        0.42380
C         -1.51969       -3.86384       -1.05793
C         -2.51511       -2.80710       -1.52178
C         -1.83154       -1.45279       -1.57885
C         -2.59778       -5.35777        4.26764
C         -5.12200       -3.65184        3.49420
C          2.24012        0.50731        0.04875
H          0.96659       -1.82271       -0.78502
H         -1.79195        0.83851        2.07098
H          0.09454        1.95844        0.99763
H         -1.88841        1.66240       -1.14464
H         -0.30196        1.40464       -1.86840
H         -0.61738        2.88781       -0.99902
H         -4.19462       -1.34158        2.15652
H         -4.05714       -4.15289        1.81105
H         -0.45269       -4.30647        3.00957
H         -2.48246       -4.77952        0.58461
H         -0.74446       -4.94353        0.57623
H         -1.75763       -4.78711       -1.60000
H         -0.49933       -3.62559       -1.37236
H         -3.40023       -2.78323       -0.87466
H         -2.88651       -3.03910       -2.52643
H         -2.58536       -0.65638       -1.65086
H         -1.21484       -1.37951       -2.48045
H         -3.59267       -5.61145        4.63188
H         -1.94540       -5.18749        5.13023
H         -2.21949       -6.24228        3.73459
H         -5.08537       -3.13106        4.45190
H         -5.36127       -4.70756        3.68489
H         -5.96114       -3.26195        2.90588
H          2.75127       -0.22458        0.68660
H          2.41716        1.49824        0.46943
H          2.69496        0.46725       -0.94612
