30

C          2.70991        0.36872       -0.14032
C          2.53158       -1.04468       -0.08108
C          1.30474       -1.61302       -0.05650
C         -0.00360       -0.77404       -0.05399
N          0.29007        0.65921       -0.05285
C          1.61419        1.12053       -0.14482
C         -0.65505        1.75038        0.13914
C         -1.20479       -1.50956       -0.03989
C         -1.05067       -3.05394        0.04275
C          0.21078       -3.74904       -0.02941
C          1.34671       -3.06219       -0.07194
C         -2.10772       -3.88182        0.18174
C         -3.44203       -3.39166        0.25661
C         -3.62270       -2.08153        0.11217
N         -2.61379       -1.12345       -0.08235
C         -3.14361        0.21572       -0.30436
H          3.70629        0.78939       -0.17794
H          3.44440       -1.63289       -0.07969
H          1.72741        2.20173       -0.19014
H         -1.47914        1.48412        0.78219
H         -0.96994        2.15816       -0.82875
H         -0.19158        2.58595        0.68383
H          0.25539       -4.83613       -0.05023
H          2.29251       -3.58729       -0.12596
H         -1.99785       -4.96110        0.23792
H         -4.26523       -4.07995        0.39861
H         -4.63910       -1.69552        0.13796
H         -4.17739        0.19424       -0.67961
H         -2.59084        0.76108       -1.06624
H         -3.22131        0.74206        0.65210
