22

C         -0.51539        1.37984       -0.11307
C          0.80342        1.12310       -0.10191
C          1.33694       -0.23204        0.09823
C          2.63804       -0.46239        0.46069
C          3.59883        0.63015        0.67257
C          4.74247        0.45686        1.35499
C          5.09920       -0.89343        1.89246
O          6.01281       -1.05244        2.69560
C          4.29997       -2.04302        1.36350
C          3.16507       -1.81696        0.67953
Br         4.92570       -3.77448        1.67804
Br         5.92554        1.87039        1.65828
C          0.37437       -1.32541       -0.10075
C         -0.95317       -1.12044       -0.11229
C         -1.50147        0.26375        0.03324
O         -2.69422        0.47242        0.23111
Br        -2.15934       -2.53336       -0.31461
Br        -1.17165        3.11799       -0.31378
H          1.47821        1.95974       -0.23750
H          3.39507        1.61769        0.27606
H          2.63482       -2.67790        0.29112
H          0.72544       -2.34062       -0.23916
