27

C          3.67541        0.82235        0.00147
C          3.80599       -0.56343        0.00177
C          2.65682       -1.35450       -0.00173
C          1.37842       -0.77895       -0.00462
C          1.24131        0.61782       -0.00004
C          2.40222        1.40584       -0.00081
N         -0.01488        1.24656       -0.01701
C         -1.27305        0.62007       -0.00081
C         -1.40972       -0.78044       -0.00481
S         -0.01540       -1.89106       -0.01203
C         -2.68738       -1.36094       -0.00187
C         -3.82958       -0.56179        0.00121
C         -3.69576        0.82185        0.00054
C         -2.43140        1.41280       -0.00265
Cl        -5.10269        1.81278        0.00107
O          4.97837       -1.26589        0.00422
C          6.18279       -0.51210        0.00772
H          4.53921        1.47879        0.00303
H          2.76692       -2.43714       -0.00364
H          2.32745        2.49065       -0.00317
H         -0.01162        2.25646        0.03614
H         -2.79848       -2.44332       -0.00331
H         -4.81211       -1.02585        0.00254
H         -2.35152        2.49635       -0.00637
H          7.01805       -1.21910        0.01217
H          6.26079        0.10222        0.91049
H          6.26790        0.09883       -0.89686
