37

C         -0.66998        1.24014        0.24528
C          0.58442        0.90590       -0.06752
N          1.01726       -0.40903       -0.21904
C          0.20893       -1.45824        0.27536
C         -1.05368       -1.22312        0.68829
C         -1.66250        0.16064        0.60937
C          0.75255       -2.81759        0.10643
C          1.37857       -3.42346        1.13505
C          2.21083       -4.66936        0.93918
C          2.25391       -5.14671       -0.49493
C          1.56165       -4.49479       -1.43983
N          0.82256       -3.34337       -1.20601
C          0.24113       -2.61327       -2.34897
C          0.75477       -1.17437       -2.51876
C          1.77018       -0.70863       -1.46250
C          3.12062       -6.31759       -0.83588
C         -1.14356        2.65079        0.10997
H          1.33217        1.64093       -0.36660
H         -1.70106       -2.04377        0.98058
H         -2.12698        0.40163        1.56946
H         -2.45203        0.14408       -0.15286
H          1.39248       -2.96466        2.11817
H          1.83087       -5.46581        1.58976
H          3.23505       -4.44117        1.26055
H          1.58008       -4.82694       -2.47442
H         -0.85266       -2.61920       -2.25856
H          0.44935       -3.14527       -3.28447
H         -0.11884       -0.50754       -2.50789
H          1.18876       -1.06011       -3.51834
H          2.27454        0.19591       -1.82332
H          2.56755       -1.44039       -1.28968
H          3.71641       -6.63888        0.02354
H          3.82127       -6.04842       -1.63403
H          2.51851       -7.16813       -1.17017
H         -0.31279        3.34178       -0.08203
H         -1.66000        2.98345        1.01006
H         -1.82581        2.72265       -0.74469
