32

N         -0.99670        0.17160        0.07179
C         -0.29941        1.27251       -0.43681
C          1.04438        1.29633       -0.52512
C          1.79808        0.00010       -0.26195
C          1.06722       -0.84595        0.76276
C         -0.27133       -0.77094        0.79962
C          3.29317        0.15948       -0.05786
C          3.94859        1.32607       -0.30144
C          3.15104        2.48109       -0.72056
C          1.81618        2.47329       -0.83562
N          5.36219        1.38745       -0.25596
C          6.08320        0.19781       -0.20973
C          5.52976       -0.99995       -0.00361
C          4.05588       -1.11945        0.22044
C          6.13151        2.63495       -0.32025
C         -2.45060        0.06751       -0.03634
H         -0.91813        2.12892       -0.67858
H          1.73240       -0.57388       -1.20200
H          1.58764       -1.57339        1.37096
H         -0.86890       -1.43551        1.41772
H          3.67049        3.39636       -0.98309
H          1.29289        3.37955       -1.13034
H          7.15550        0.29785       -0.35711
H          6.13381       -1.89918        0.01797
H          3.88870       -1.43553        1.25533
H          3.67903       -1.91025       -0.43955
H          5.54831        3.51719       -0.04636
H          6.54601        2.77627       -1.32455
H          6.96663        2.59789        0.39130
H         -2.90401        0.99890       -0.39286
H         -2.89626       -0.17230        0.93458
H         -2.71351       -0.72964       -0.74435
