38

C          4.69838       -0.55342       -1.06129
C          4.51527        0.77948       -0.97534
N          3.22926        1.32112       -0.92723
C          2.19752        0.45213       -1.62824
C          2.29869       -0.94168       -1.08521
C          3.54230       -1.43478       -0.90282
C          0.89849        1.19122       -1.64582
C          1.05573        2.48884       -2.00996
C          1.75037        3.28543       -0.95070
C          2.91178        2.67483       -0.57203
C          1.51620        4.74710       -1.02490
C          1.28384        5.32222       -2.24137
C          1.48950        4.51173       -3.46887
C          1.93354        5.03148       -4.64272
C          2.98245        4.26824       -5.47729
N          3.72077        3.38166       -4.52915
C          2.85808        2.63983       -3.71352
C          1.66343        3.04883       -3.26450
C          4.76264        2.63690       -5.06297
C          4.57652        2.02588       -6.24216
C          3.31029        2.27237       -6.93453
C          2.55008        3.34111       -6.60813
H          5.68148       -0.99040       -1.19608
H          5.32801        1.49629       -1.03759
H          2.43352        0.27910       -2.68777
H          1.41614       -1.55875       -0.98696
H          3.71562       -2.46744       -0.62431
H          0.37350        1.01648       -0.69955
H          3.73577        3.21281       -0.11608
H          1.43626        5.30548       -0.09900
H          1.07165        6.38074       -2.34083
H          1.92250        6.10729       -4.79471
H          3.68667        5.00533       -5.88365
H          3.34412        1.72712       -3.41733
H          5.59239        2.45879       -4.38262
H          5.28099        1.28541       -6.59864
H          2.99478        1.53478       -7.66113
H          1.59906        3.52432       -7.09883
