28

C         -0.53526        1.23560        0.18356
C          0.68861        0.87546       -0.22095
N          1.08126       -0.44720       -0.30908
C          0.27359       -1.46599        0.24550
C         -0.98487       -1.20687        0.64952
C         -1.55967        0.18798        0.53669
C          0.82128       -2.82260        0.08838
C          1.24636       -3.57044        1.12555
C          2.08332       -4.80875        0.89565
C          2.17557       -5.20730       -0.55470
C          1.72283       -4.39801       -1.51759
N          1.15143       -3.17013       -1.24163
C          1.34806       -2.02750       -2.16664
C          2.03361       -0.88776       -1.36009
H         -0.81736        2.28123        0.20426
H          1.44743        1.59509       -0.51562
H         -1.65276       -2.00777        0.94909
H         -2.04284        0.46286        1.47751
H         -2.32967        0.18892       -0.24657
H          1.12003       -3.22994        2.14823
H          1.67755       -5.63984        1.47959
H          3.10133       -4.61418        1.25985
H          2.65480       -6.15049       -0.80708
H          1.81005       -4.64042       -2.57059
H          0.37110       -1.69504       -2.54421
H          1.96524       -2.30958       -3.02467
H          2.29402       -0.06311       -2.02958
H          2.95579       -1.25419       -0.88665
