35

C         -0.59172        1.21283        0.15190
C          0.63572        0.86076       -0.24818
N          1.03498       -0.45815       -0.33417
C          0.23231       -1.47169        0.21909
C         -1.02943       -1.22850        0.61992
C         -1.61177        0.16215        0.50498
C          0.80421       -2.83041        0.08648
C          1.22277       -3.55006        1.14686
C          2.13140       -4.75011        0.96849
C          2.33084       -5.15701       -0.47954
C          1.83987       -4.39139       -1.45835
N          1.18307       -3.19184       -1.22876
C          1.37747       -2.05643       -2.16781
C          2.01608       -0.88978       -1.35965
O          3.01896       -6.32089       -0.78763
C          4.24163       -6.47400       -0.06514
C          5.00545       -7.64308       -0.65922
H         -0.88143        2.25850        0.18052
H          1.38488        1.58766       -0.54398
H         -1.69125       -2.03306        0.91817
H         -2.09463        0.43156        1.44796
H         -2.38433        0.16052       -0.27545
H          1.05243       -3.19650        2.15850
H          1.73611       -5.59627        1.54274
H          3.10656       -4.47903        1.39490
H          1.96432       -4.64808       -2.50350
H          0.40355       -1.75035       -2.57479
H          2.02281       -2.33682       -3.00728
H          2.28161       -0.06922       -2.03219
H          2.93522       -1.23181       -0.86096
H          4.02500       -6.68461        0.98656
H          4.85220       -5.56492       -0.14101
H          4.38249       -8.54308       -0.67580
H          5.91036       -7.84892       -0.08050
H          5.29244       -7.43285       -1.69477
