24

C          2.41992        0.48623       -0.02089
C          2.46595       -0.96767        0.00610
C          1.33744       -1.70426        0.10516
C          0.01727       -1.00642        0.20194
N          0.06456        0.38529        0.23905
C          1.23063        1.09496        0.09426
C         -1.11893       -1.75157        0.20515
C         -1.00059       -3.23845        0.06445
C          0.29840       -3.89883        0.14003
C          1.42067       -3.16321        0.14362
C         -2.12028       -3.96716       -0.14487
C         -3.41880       -3.32811       -0.27605
C         -3.51524       -2.01248       -0.03594
N         -2.41611       -1.24961        0.27314
H          3.34102        1.04207       -0.13751
H          3.44558       -1.42584       -0.06819
H         -0.80960        0.88956        0.21958
H          1.12119        2.17090        0.07281
H          0.34634       -4.98188        0.17023
H          2.39406       -3.64008        0.17058
H         -2.08973       -5.04593       -0.25191
H         -4.27175       -3.92087       -0.58262
H         -4.45139       -1.46995       -0.11276
H         -2.53040       -0.24913        0.32749
