29

C          1.01663       -0.11453        0.27266
N          2.49148       -0.04532        0.22522
C          3.17167        1.16587        0.31091
C          4.51108        1.22895        0.40057
C          5.32659       -0.03647        0.48514
C          4.55966       -1.24808        0.01976
C          3.21672       -1.19647       -0.12318
C          2.41755       -2.32222       -0.60283
C          2.61151       -2.91413       -1.79182
C          1.65490       -3.98355       -2.25918
C          0.87586       -4.59733       -1.12082
C          0.74022       -3.90390        0.02015
N          1.31595       -2.65601        0.18972
C          0.43150       -1.52751        0.55110
C          5.22897        2.56866        0.38660
N          5.82453        3.68007        0.37501
H          0.62254        0.25691       -0.68150
H          0.64291        0.56002        1.05166
H          2.54043        2.04799        0.26397
H          5.65141       -0.18914        1.52287
H          6.22835        0.06096       -0.12941
H          5.10926       -2.16311       -0.16705
H          3.38754       -2.57924       -2.47079
H          2.21106       -4.76100       -2.78881
H          0.94419       -3.53847       -2.97052
H          0.41120       -5.56552       -1.25773
H          0.17491       -4.27498        0.86928
H          0.11603       -1.62100        1.59519
H         -0.48045       -1.61029       -0.05996
