
 OpenBabel03182211373D

 14 14  0  0  0  0  0  0  0  0999 V2000
    1.1462   -0.0309    0.0596 O   0  0  0  0  0  0  0  0  0  0  0  0
    2.3660   -0.0570    0.0163 C   0  0  0  0  0  0  0  0  0  0  0  0
    3.1462    0.9666    0.4498 O   0  0  0  0  0  0  0  0  0  0  0  0
    3.9710    1.5328   -0.5725 C   0  0  0  0  0  0  0  0  0  0  0  0
    5.2405    0.7621   -0.7735 C   0  0  0  0  0  0  0  0  0  0  0  0
    5.4175   -0.5202   -0.4200 C   0  0  0  0  0  0  0  0  0  0  0  0
    4.3427   -1.3806    0.1665 C   0  0  0  0  0  0  0  0  0  0  0  0
    3.0717   -1.1236   -0.4439 O   0  0  0  0  0  0  0  0  0  0  0  0
    4.2216    2.5462   -0.2415 H   0  0  0  0  0  0  0  0  0  0  0  0
    3.4192    1.6255   -1.5158 H   0  0  0  0  0  0  0  0  0  0  0  0
    6.0663    1.3049   -1.2267 H   0  0  0  0  0  0  0  0  0  0  0  0
    6.3873   -0.9868   -0.5736 H   0  0  0  0  0  0  0  0  0  0  0  0
    4.2892   -1.2664    1.2559 H   0  0  0  0  0  0  0  0  0  0  0  0
    4.5757   -2.4313   -0.0358 H   0  0  0  0  0  0  0  0  0  0  0  0
  1  2  2  0  0  0  0
  2  3  1  0  0  0  0
  2  8  1  0  0  0  0
  3  4  1  0  0  0  0
  4  5  1  0  0  0  0
  4  9  1  0  0  0  0
  4 10  1  0  0  0  0
  5  6  2  0  0  0  0
  5 11  1  0  0  0  0
  6  7  1  0  0  0  0
  6 12  1  0  0  0  0
  7  8  1  0  0  0  0
  7 13  1  0  0  0  0
  7 14  1  0  0  0  0
M  END
$$$$
