
 OpenBabel03182211373D

 13 13  0  0  0  0  0  0  0  0999 V2000
    2.1309   -0.0023   -0.1375 O   0  0  0  0  0  0  0  0  0  0  0  0
    0.9137   -0.0081   -0.0232 C   0  0  0  0  0  0  0  0  0  0  0  0
    0.2036   -1.1677    0.0098 O   0  0  0  0  0  0  0  0  0  0  0  0
   -1.1831   -1.1731    0.3481 C   0  0  0  0  0  0  0  0  0  0  0  0
   -1.8829   -0.0589   -0.3739 C   0  0  0  0  0  0  0  0  0  0  0  0
   -1.2307    1.2206    0.0723 C   0  0  0  0  0  0  0  0  0  0  0  0
    0.2013    1.1489    0.0655 O   0  0  0  0  0  0  0  0  0  0  0  0
   -1.2802   -1.0957    1.4357 H   0  0  0  0  0  0  0  0  0  0  0  0
   -1.5950   -2.1399    0.0424 H   0  0  0  0  0  0  0  0  0  0  0  0
   -2.9568   -0.0489   -0.1656 H   0  0  0  0  0  0  0  0  0  0  0  0
   -1.7434   -0.1790   -1.4552 H   0  0  0  0  0  0  0  0  0  0  0  0
   -1.5432    1.4902    1.0868 H   0  0  0  0  0  0  0  0  0  0  0  0
   -1.5234    2.0436   -0.5884 H   0  0  0  0  0  0  0  0  0  0  0  0
  1  2  2  0  0  0  0
  2  3  1  0  0  0  0
  2  7  1  0  0  0  0
  3  4  1  0  0  0  0
  4  5  1  0  0  0  0
  4  8  1  0  0  0  0
  4  9  1  0  0  0  0
  5  6  1  0  0  0  0
  5 10  1  0  0  0  0
  5 11  1  0  0  0  0
  6  7  1  0  0  0  0
  6 12  1  0  0  0  0
  6 13  1  0  0  0  0
M  END
$$$$
