
 OpenBabel03182211383D

 19 20  0  0  1  0  0  0  0  0999 V2000
    1.2755    0.5763    0.5312 S   0  0  0  0  0  0  0  0  0  0  0  0
    2.8213    0.1594    0.0678 C   0  0  0  0  0  0  0  0  0  0  0  0
    3.4485   -1.4647    0.2178 S   0  0  0  0  0  0  0  0  0  0  0  0
    4.5844   -1.5064   -1.1825 C   0  0  0  0  0  0  0  0  0  0  0  0
    5.3918   -0.2237   -1.3052 C   0  0  2  0  0  0  0  0  0  0  0  0
    4.4385    0.9680   -1.4716 C   0  0  2  0  0  0  0  0  0  0  0  0
    5.2534    2.2097   -1.7163 C   0  0  0  0  0  0  0  0  0  0  0  0
    6.4938    2.1101   -2.2218 C   0  0  0  0  0  0  0  0  0  0  0  0
    7.1283    0.7979   -2.5892 C   0  0  0  0  0  0  0  0  0  0  0  0
    6.2315   -0.3191   -2.4673 O   0  0  0  0  0  0  0  0  0  0  0  0
    3.6021    1.1943   -0.3353 O   0  0  0  0  0  0  0  0  0  0  0  0
    4.0150   -1.6917   -2.0999 H   0  0  0  0  0  0  0  0  0  0  0  0
    5.2582   -2.3627   -1.0666 H   0  0  0  0  0  0  0  0  0  0  0  0
    6.0243   -0.1156   -0.4114 H   0  0  0  0  0  0  0  0  0  0  0  0
    3.7911    0.8376   -2.3488 H   0  0  0  0  0  0  0  0  0  0  0  0
    4.8204    3.1742   -1.4798 H   0  0  0  0  0  0  0  0  0  0  0  0
    7.0819    3.0074   -2.3876 H   0  0  0  0  0  0  0  0  0  0  0  0
    8.0029    0.6098   -1.9607 H   0  0  0  0  0  0  0  0  0  0  0  0
    7.4581    0.8299   -3.6321 H   0  0  0  0  0  0  0  0  0  0  0  0
  1  2  2  0  0  0  0
  2  3  1  0  0  0  0
  2 11  1  0  0  0  0
  3  4  1  0  0  0  0
  4  5  1  0  0  0  0
  4 12  1  0  0  0  0
  4 13  1  0  0  0  0
  5  6  1  0  0  0  0
  5 10  1  0  0  0  0
  5 14  1  1  0  0  0
  6  7  1  0  0  0  0
  6 11  1  0  0  0  0
  6 15  1  6  0  0  0
  7  8  2  0  0  0  0
  7 16  1  0  0  0  0
  8  9  1  0  0  0  0
  8 17  1  0  0  0  0
  9 10  1  0  0  0  0
  9 18  1  0  0  0  0
  9 19  1  0  0  0  0
M  END
$$$$
