
 OpenBabel03182211383D

 21 22  0  0  1  0  0  0  0  0999 V2000
    0.9840   -0.3941   -0.6018 S   0  0  0  0  0  0  0  0  0  0  0  0
    2.5324   -0.0608   -0.0776 C   0  0  0  0  0  0  0  0  0  0  0  0
    3.1883    1.5565   -0.0774 S   0  0  0  0  0  0  0  0  0  0  0  0
    4.4533    1.4162    1.1951 C   0  0  0  0  0  0  0  0  0  0  0  0
    5.2415    0.1202    1.0778 C   0  0  2  0  0  0  0  0  0  0  0  0
    4.2939   -1.0689    1.2428 C   0  0  2  0  0  0  0  0  0  0  0  0
    5.1003   -2.3681    1.1995 C   0  0  0  0  0  0  0  0  0  0  0  0
    6.2279   -2.3281    2.2227 C   0  0  0  0  0  0  0  0  0  0  0  0
    7.0579   -1.0592    2.0660 C   0  0  0  0  0  0  0  0  0  0  0  0
    6.2332    0.1067    2.1156 O   0  0  0  0  0  0  0  0  0  0  0  0
    3.2649   -1.1555    0.2465 O   0  0  0  0  0  0  0  0  0  0  0  0
    3.9814    1.4915    2.1829 H   0  0  0  0  0  0  0  0  0  0  0  0
    5.1305    2.2737    1.1179 H   0  0  0  0  0  0  0  0  0  0  0  0
    5.7464    0.0912    0.1031 H   0  0  0  0  0  0  0  0  0  0  0  0
    3.7984   -1.0222    2.2225 H   0  0  0  0  0  0  0  0  0  0  0  0
    5.5135   -2.5144    0.1916 H   0  0  0  0  0  0  0  0  0  0  0  0
    4.4464   -3.2285    1.3818 H   0  0  0  0  0  0  0  0  0  0  0  0
    6.8634   -3.2125    2.1273 H   0  0  0  0  0  0  0  0  0  0  0  0
    5.7856   -2.3456    3.2270 H   0  0  0  0  0  0  0  0  0  0  0  0
    7.6189   -1.0653    1.1254 H   0  0  0  0  0  0  0  0  0  0  0  0
    7.7825   -0.9873    2.8846 H   0  0  0  0  0  0  0  0  0  0  0  0
  1  2  2  0  0  0  0
  2  3  1  0  0  0  0
  2 11  1  0  0  0  0
  3  4  1  0  0  0  0
  4  5  1  0  0  0  0
  4 12  1  0  0  0  0
  4 13  1  0  0  0  0
  5  6  1  0  0  0  0
  5 10  1  0  0  0  0
  5 14  1  6  0  0  0
  6  7  1  0  0  0  0
  6 11  1  0  0  0  0
  6 15  1  1  0  0  0
  7  8  1  0  0  0  0
  7 16  1  0  0  0  0
  7 17  1  0  0  0  0
  8  9  1  0  0  0  0
  8 18  1  0  0  0  0
  8 19  1  0  0  0  0
  9 10  1  0  0  0  0
  9 20  1  0  0  0  0
  9 21  1  0  0  0  0
M  END
$$$$
