
 OpenBabel03182211383D

 89 90  0  0  1  0  0  0  0  0999 V2000
   -2.1145   -0.0281   -1.4661 C   0  0  0  0  0  0  0  0  0  0  0  0
   -1.4330   -0.0462   -0.1034 C   0  0  0  0  0  0  0  0  0  0  0  0
   -2.4597   -0.1138    1.0228 C   0  0  0  0  0  0  0  0  0  0  0  0
   -0.6508    1.1412    0.0322 O   0  0  0  0  0  0  0  0  0  0  0  0
    0.5351    0.7481    0.7357 C   0  0  2  0  0  0  0  0  0  0  0  0
    1.7883    1.1931   -0.0114 C   0  0  1  0  0  0  0  0  0  0  0  0
    2.7989    1.5376    0.9581 O   0  0  0  0  0  0  0  0  0  0  0  0
    3.9709    2.2366    0.5151 C   0  0  0  0  0  0  0  0  0  0  0  0
    3.7005    3.4559   -0.3479 C   0  0  0  0  0  0  0  0  0  0  0  0
    3.0181    4.4906    0.5210 C   0  0  0  0  0  0  0  0  0  0  0  0
    2.6541    5.7174   -0.2814 C   0  0  0  0  0  0  0  0  0  0  0  0
    2.0763    6.7494    0.6668 C   0  0  0  0  0  0  0  0  0  0  0  0
    1.7187    8.0077   -0.0934 C   0  0  0  0  0  0  0  0  0  0  0  0
    1.1578    9.0428    0.8615 C   0  0  0  0  0  0  0  0  0  0  0  0
    0.7974   10.3138    0.1073 C   0  0  0  0  0  0  0  0  0  0  0  0
    0.2401   11.3544    1.0691 C   0  0  0  0  0  0  0  0  0  0  0  0
   -0.1214   12.6078    0.3377 C   0  0  0  0  0  0  0  0  0  0  0  0
   -1.3689   13.1083    0.2912 C   0  0  0  0  0  0  0  0  0  0  0  0
    2.1057   -0.0525   -0.8484 C   0  0  1  0  0  0  0  0  0  0  0  0
    3.5669   -0.1567   -1.2076 C   0  0  0  0  0  0  0  0  0  0  0  0
    3.8725   -1.2438   -2.0633 O   0  0  0  0  0  0  0  0  0  0  0  0
    5.2865   -1.2702   -2.2452 C   0  0  0  0  0  0  0  0  0  0  0  0
    5.6154   -2.5158   -3.0241 C   0  0  0  0  0  0  0  0  0  0  0  0
    7.1013   -2.5600   -3.3159 C   0  0  0  0  0  0  0  0  0  0  0  0
    7.4143   -3.8057   -4.1250 C   0  0  0  0  0  0  0  0  0  0  0  0
    8.8974   -3.8682   -4.4450 C   0  0  0  0  0  0  0  0  0  0  0  0
    9.2026   -5.1155   -5.2573 C   0  0  0  0  0  0  0  0  0  0  0  0
   10.6873   -5.1867   -5.5815 C   0  0  0  0  0  0  0  0  0  0  0  0
   11.0017   -6.4368   -6.3946 C   0  0  0  0  0  0  0  0  0  0  0  0
   12.4910   -6.5020   -6.7208 C   0  0  0  0  0  0  0  0  0  0  0  0
   12.8156   -7.7310   -7.5104 C   0  0  0  0  0  0  0  0  0  0  0  0
   13.6599   -8.6809   -7.0901 C   0  0  0  0  0  0  0  0  0  0  0  0
    1.7373   -1.1694   -0.0217 O   0  0  0  0  0  0  0  0  0  0  0  0
    0.5737   -0.7688    0.6921 C   0  0  2  0  0  0  0  0  0  0  0  0
   -0.5908   -1.1865   -0.0101 O   0  0  0  0  0  0  0  0  0  0  0  0
   -2.7950    0.8252   -1.5593 H   0  0  0  0  0  0  0  0  0  0  0  0
   -2.6707   -0.9533   -1.6473 H   0  0  0  0  0  0  0  0  0  0  0  0
   -1.3705    0.0663   -2.2654 H   0  0  0  0  0  0  0  0  0  0  0  0
   -3.1428    0.7411    0.9937 H   0  0  0  0  0  0  0  0  0  0  0  0
   -1.9654   -0.0987    2.0011 H   0  0  0  0  0  0  0  0  0  0  0  0
   -3.0378   -1.0427    0.9711 H   0  0  0  0  0  0  0  0  0  0  0  0
    0.4814    1.1370    1.7579 H   0  0  0  0  0  0  0  0  0  0  0  0
    1.5530    2.0520   -0.6440 H   0  0  0  0  0  0  0  0  0  0  0  0
    4.6769    1.5816    0.0059 H   0  0  0  0  0  0  0  0  0  0  0  0
    4.5094    2.5391    1.4179 H   0  0  0  0  0  0  0  0  0  0  0  0
    3.0888    3.2212   -1.2247 H   0  0  0  0  0  0  0  0  0  0  0  0
    4.6457    3.8550   -0.7367 H   0  0  0  0  0  0  0  0  0  0  0  0
    3.6949    4.7679    1.3393 H   0  0  0  0  0  0  0  0  0  0  0  0
    2.1144    4.0725    0.9808 H   0  0  0  0  0  0  0  0  0  0  0  0
    1.9229    5.4574   -1.0563 H   0  0  0  0  0  0  0  0  0  0  0  0
    3.5413    6.1176   -0.7860 H   0  0  0  0  0  0  0  0  0  0  0  0
    2.8066    6.9822    1.4523 H   0  0  0  0  0  0  0  0  0  0  0  0
    1.1870    6.3431    1.1650 H   0  0  0  0  0  0  0  0  0  0  0  0
    0.9838    7.7724   -0.8747 H   0  0  0  0  0  0  0  0  0  0  0  0
    2.6116    8.4022   -0.5970 H   0  0  0  0  0  0  0  0  0  0  0  0
    1.8966    9.2668    1.6407 H   0  0  0  0  0  0  0  0  0  0  0  0
    0.2699    8.6395    1.3639 H   0  0  0  0  0  0  0  0  0  0  0  0
    0.0596   10.0799   -0.6724 H   0  0  0  0  0  0  0  0  0  0  0  0
    1.6886   10.7036   -0.4005 H   0  0  0  0  0  0  0  0  0  0  0  0
    0.9887   11.5957    1.8320 H   0  0  0  0  0  0  0  0  0  0  0  0
   -0.6287   10.9390    1.5944 H   0  0  0  0  0  0  0  0  0  0  0  0
    0.6741   13.1346   -0.1836 H   0  0  0  0  0  0  0  0  0  0  0  0
   -2.1912   12.6082    0.7936 H   0  0  0  0  0  0  0  0  0  0  0  0
   -1.5950   14.0114   -0.2577 H   0  0  0  0  0  0  0  0  0  0  0  0
    1.4810   -0.0942   -1.7495 H   0  0  0  0  0  0  0  0  0  0  0  0
    4.1378   -0.3165   -0.2865 H   0  0  0  0  0  0  0  0  0  0  0  0
    3.8739    0.7567   -1.7289 H   0  0  0  0  0  0  0  0  0  0  0  0
    5.8026   -1.2877   -1.2763 H   0  0  0  0  0  0  0  0  0  0  0  0
    5.6004   -0.3717   -2.7910 H   0  0  0  0  0  0  0  0  0  0  0  0
    5.0343   -2.5324   -3.9499 H   0  0  0  0  0  0  0  0  0  0  0  0
    5.3079   -3.3956   -2.4469 H   0  0  0  0  0  0  0  0  0  0  0  0
    7.6738   -2.5666   -2.3813 H   0  0  0  0  0  0  0  0  0  0  0  0
    7.4042   -1.6664   -3.8752 H   0  0  0  0  0  0  0  0  0  0  0  0
    6.8325   -3.7983   -5.0543 H   0  0  0  0  0  0  0  0  0  0  0  0
    7.1144   -4.6988   -3.5619 H   0  0  0  0  0  0  0  0  0  0  0  0
    9.4779   -3.8743   -3.5144 H   0  0  0  0  0  0  0  0  0  0  0  0
    9.1935   -2.9738   -5.0069 H   0  0  0  0  0  0  0  0  0  0  0  0
    8.6174   -5.1065   -6.1854 H   0  0  0  0  0  0  0  0  0  0  0  0
    8.9001   -6.0078   -4.6936 H   0  0  0  0  0  0  0  0  0  0  0  0
   11.2669   -5.1926   -4.6503 H   0  0  0  0  0  0  0  0  0  0  0  0
   10.9846   -4.2926   -6.1427 H   0  0  0  0  0  0  0  0  0  0  0  0
   10.4132   -6.4303   -7.3209 H   0  0  0  0  0  0  0  0  0  0  0  0
   10.7009   -7.3278   -5.8291 H   0  0  0  0  0  0  0  0  0  0  0  0
   13.0711   -6.4702   -5.7900 H   0  0  0  0  0  0  0  0  0  0  0  0
   12.7813   -5.6204   -7.3061 H   0  0  0  0  0  0  0  0  0  0  0  0
   12.3320   -7.8429   -8.4782 H   0  0  0  0  0  0  0  0  0  0  0  0
   14.1619   -8.6124   -6.1273 H   0  0  0  0  0  0  0  0  0  0  0  0
   13.8591   -9.5577   -7.6952 H   0  0  0  0  0  0  0  0  0  0  0  0
    0.5892   -1.2268    1.6851 H   0  0  0  0  0  0  0  0  0  0  0  0
  1  2  1  0  0  0  0
  1 36  1  0  0  0  0
  1 37  1  0  0  0  0
  1 38  1  0  0  0  0
  2  3  1  0  0  0  0
  2  4  1  0  0  0  0
  2 35  1  0  0  0  0
  3 39  1  0  0  0  0
  3 40  1  0  0  0  0
  3 41  1  0  0  0  0
  4  5  1  0  0  0  0
  5  6  1  0  0  0  0
  5 34  1  0  0  0  0
  5 42  1  1  0  0  0
  6  7  1  0  0  0  0
  6 19  1  0  0  0  0
  6 43  1  6  0  0  0
  7  8  1  0  0  0  0
  8  9  1  0  0  0  0
  8 44  1  0  0  0  0
  8 45  1  0  0  0  0
  9 10  1  0  0  0  0
  9 46  1  0  0  0  0
  9 47  1  0  0  0  0
 10 11  1  0  0  0  0
 10 48  1  0  0  0  0
 10 49  1  0  0  0  0
 11 12  1  0  0  0  0
 11 50  1  0  0  0  0
 11 51  1  0  0  0  0
 12 13  1  0  0  0  0
 12 52  1  0  0  0  0
 12 53  1  0  0  0  0
 13 14  1  0  0  0  0
 13 54  1  0  0  0  0
 13 55  1  0  0  0  0
 14 15  1  0  0  0  0
 14 56  1  0  0  0  0
 14 57  1  0  0  0  0
 15 16  1  0  0  0  0
 15 58  1  0  0  0  0
 15 59  1  0  0  0  0
 16 17  1  0  0  0  0
 16 60  1  0  0  0  0
 16 61  1  0  0  0  0
 17 18  2  0  0  0  0
 17 62  1  0  0  0  0
 18 63  1  0  0  0  0
 18 64  1  0  0  0  0
 19 20  1  0  0  0  0
 19 33  1  0  0  0  0
 19 65  1  6  0  0  0
 20 21  1  0  0  0  0
 20 66  1  0  0  0  0
 20 67  1  0  0  0  0
 21 22  1  0  0  0  0
 22 23  1  0  0  0  0
 22 68  1  0  0  0  0
 22 69  1  0  0  0  0
 23 24  1  0  0  0  0
 23 70  1  0  0  0  0
 23 71  1  0  0  0  0
 24 25  1  0  0  0  0
 24 72  1  0  0  0  0
 24 73  1  0  0  0  0
 25 26  1  0  0  0  0
 25 74  1  0  0  0  0
 25 75  1  0  0  0  0
 26 27  1  0  0  0  0
 26 76  1  0  0  0  0
 26 77  1  0  0  0  0
 27 28  1  0  0  0  0
 27 78  1  0  0  0  0
 27 79  1  0  0  0  0
 28 29  1  0  0  0  0
 28 80  1  0  0  0  0
 28 81  1  0  0  0  0
 29 30  1  0  0  0  0
 29 82  1  0  0  0  0
 29 83  1  0  0  0  0
 30 31  1  0  0  0  0
 30 84  1  0  0  0  0
 30 85  1  0  0  0  0
 31 32  2  0  0  0  0
 31 86  1  0  0  0  0
 32 87  1  0  0  0  0
 32 88  1  0  0  0  0
 33 34  1  0  0  0  0
 34 35  1  0  0  0  0
 34 89  1  1  0  0  0
M  END
$$$$
