
 OpenBabel03182211373D

 53 54  0  0  1  0  0  0  0  0999 V2000
   -2.1070   -0.0359   -1.4639 C   0  0  0  0  0  0  0  0  0  0  0  0
   -1.4277   -0.0477   -0.1017 C   0  0  0  0  0  0  0  0  0  0  0  0
   -2.4610   -0.1093    1.0216 C   0  0  0  0  0  0  0  0  0  0  0  0
   -0.6471    1.1403    0.0283 O   0  0  0  0  0  0  0  0  0  0  0  0
    0.5415    0.7525    0.7265 C   0  0  2  0  0  0  0  0  0  0  0  0
    1.7943    1.2034   -0.0209 C   0  0  1  0  0  0  0  0  0  0  0  0
    2.7798    1.5731    0.9626 O   0  0  0  0  0  0  0  0  0  0  0  0
    3.9422    2.2952    0.5422 C   0  0  0  0  0  0  0  0  0  0  0  0
    3.6798    3.5410   -0.2947 C   0  0  0  0  0  0  0  0  0  0  0  0
    2.9975    4.5986    0.5644 C   0  0  0  0  0  0  0  0  0  0  0  0
    2.6221    5.8066   -0.2385 C   0  0  0  0  0  0  0  0  0  0  0  0
    1.3679    6.2551   -0.3373 C   0  0  0  0  0  0  0  0  0  0  0  0
    2.1285   -0.0485   -0.8494 C   0  0  1  0  0  0  0  0  0  0  0  0
    3.5952   -0.1584   -1.2142 C   0  0  0  0  0  0  0  0  0  0  0  0
    3.8943   -1.2466   -2.0827 O   0  0  0  0  0  0  0  0  0  0  0  0
    5.3088   -1.2919   -2.2866 C   0  0  0  0  0  0  0  0  0  0  0  0
    5.6471   -2.5361   -3.0783 C   0  0  0  0  0  0  0  0  0  0  0  0
    7.1432   -2.5967   -3.3631 C   0  0  0  0  0  0  0  0  0  0  0  0
    7.4766   -3.8110   -4.1734 C   0  0  0  0  0  0  0  0  0  0  0  0
    7.9939   -3.7586   -5.4067 C   0  0  0  0  0  0  0  0  0  0  0  0
    1.7516   -1.1648   -0.0234 O   0  0  0  0  0  0  0  0  0  0  0  0
    0.5855   -0.7642    0.6891 C   0  0  2  0  0  0  0  0  0  0  0  0
   -0.5839   -1.1882   -0.0023 O   0  0  0  0  0  0  0  0  0  0  0  0
   -2.7838    0.8198   -1.5637 H   0  0  0  0  0  0  0  0  0  0  0  0
   -2.6673   -0.9597   -1.6413 H   0  0  0  0  0  0  0  0  0  0  0  0
   -1.3611    0.0511   -2.2625 H   0  0  0  0  0  0  0  0  0  0  0  0
   -3.1390    0.7493    0.9892 H   0  0  0  0  0  0  0  0  0  0  0  0
   -1.9721   -0.0981    2.0024 H   0  0  0  0  0  0  0  0  0  0  0  0
   -3.0458   -1.0339    0.9666 H   0  0  0  0  0  0  0  0  0  0  0  0
    0.4876    1.1401    1.7494 H   0  0  0  0  0  0  0  0  0  0  0  0
    1.5597    2.0554   -0.6624 H   0  0  0  0  0  0  0  0  0  0  0  0
    4.6505    1.6480    0.0260 H   0  0  0  0  0  0  0  0  0  0  0  0
    4.4713    2.5835    1.4576 H   0  0  0  0  0  0  0  0  0  0  0  0
    3.0796    3.3128   -1.1828 H   0  0  0  0  0  0  0  0  0  0  0  0
    4.6356    3.9274   -0.6727 H   0  0  0  0  0  0  0  0  0  0  0  0
    3.6825    4.9055    1.3628 H   0  0  0  0  0  0  0  0  0  0  0  0
    2.1133    4.1687    1.0508 H   0  0  0  0  0  0  0  0  0  0  0  0
    3.4254    6.3352   -0.7501 H   0  0  0  0  0  0  0  0  0  0  0  0
    0.5464    5.7559    0.1686 H   0  0  0  0  0  0  0  0  0  0  0  0
    1.1415    7.1426   -0.9170 H   0  0  0  0  0  0  0  0  0  0  0  0
    1.5049   -0.0945   -1.7515 H   0  0  0  0  0  0  0  0  0  0  0  0
    4.1701   -0.3189   -0.2957 H   0  0  0  0  0  0  0  0  0  0  0  0
    3.9040    0.7582   -1.7283 H   0  0  0  0  0  0  0  0  0  0  0  0
    5.8284   -1.3159   -1.3196 H   0  0  0  0  0  0  0  0  0  0  0  0
    5.6217   -0.3902   -2.8275 H   0  0  0  0  0  0  0  0  0  0  0  0
    5.0689   -2.5411   -4.0100 H   0  0  0  0  0  0  0  0  0  0  0  0
    5.3234   -3.4194   -2.5134 H   0  0  0  0  0  0  0  0  0  0  0  0
    7.7049   -2.6351   -2.4208 H   0  0  0  0  0  0  0  0  0  0  0  0
    7.4581   -1.6810   -3.8815 H   0  0  0  0  0  0  0  0  0  0  0  0
    7.2664   -4.7792   -3.7209 H   0  0  0  0  0  0  0  0  0  0  0  0
    8.2079   -2.8154   -5.8995 H   0  0  0  0  0  0  0  0  0  0  0  0
    8.1990   -4.6706   -5.9575 H   0  0  0  0  0  0  0  0  0  0  0  0
    0.6054   -1.2174    1.6847 H   0  0  0  0  0  0  0  0  0  0  0  0
  1  2  1  0  0  0  0
  1 24  1  0  0  0  0
  1 25  1  0  0  0  0
  1 26  1  0  0  0  0
  2  3  1  0  0  0  0
  2  4  1  0  0  0  0
  2 23  1  0  0  0  0
  3 27  1  0  0  0  0
  3 28  1  0  0  0  0
  3 29  1  0  0  0  0
  4  5  1  0  0  0  0
  5  6  1  0  0  0  0
  5 22  1  0  0  0  0
  5 30  1  1  0  0  0
  6  7  1  0  0  0  0
  6 13  1  0  0  0  0
  6 31  1  6  0  0  0
  7  8  1  0  0  0  0
  8  9  1  0  0  0  0
  8 32  1  0  0  0  0
  8 33  1  0  0  0  0
  9 10  1  0  0  0  0
  9 34  1  0  0  0  0
  9 35  1  0  0  0  0
 10 11  1  0  0  0  0
 10 36  1  0  0  0  0
 10 37  1  0  0  0  0
 11 12  2  0  0  0  0
 11 38  1  0  0  0  0
 12 39  1  0  0  0  0
 12 40  1  0  0  0  0
 13 14  1  0  0  0  0
 13 21  1  0  0  0  0
 13 41  1  6  0  0  0
 14 15  1  0  0  0  0
 14 42  1  0  0  0  0
 14 43  1  0  0  0  0
 15 16  1  0  0  0  0
 16 17  1  0  0  0  0
 16 44  1  0  0  0  0
 16 45  1  0  0  0  0
 17 18  1  0  0  0  0
 17 46  1  0  0  0  0
 17 47  1  0  0  0  0
 18 19  1  0  0  0  0
 18 48  1  0  0  0  0
 18 49  1  0  0  0  0
 19 20  2  0  0  0  0
 19 50  1  0  0  0  0
 20 51  1  0  0  0  0
 20 52  1  0  0  0  0
 21 22  1  0  0  0  0
 22 23  1  0  0  0  0
 22 53  1  1  0  0  0
M  END
$$$$
