
 OpenBabel03182211373D

 29 30  0  0  1  0  0  0  0  0999 V2000
    1.3964    0.2200    0.7969 O   0  0  0  0  0  0  0  0  0  0  0  0
    2.3861    0.0928    0.0908 C   0  0  0  0  0  0  0  0  0  0  0  0
    2.8342   -1.1325   -0.2984 O   0  0  0  0  0  0  0  0  0  0  0  0
    3.9270   -1.3520   -1.2098 C   0  0  0  0  0  0  0  0  0  0  0  0
    4.8262   -0.1563   -1.3810 C   0  0  2  0  0  0  0  0  0  0  0  0
    3.9084    1.0472   -1.4658 C   0  0  2  0  0  0  0  0  0  0  0  0
    4.7717    2.2642   -1.6372 C   0  0  0  0  0  0  0  0  0  0  0  0
    5.9732    2.1346   -2.2236 C   0  0  0  0  0  0  0  0  0  0  0  0
    6.4881    0.8264   -2.7828 C   0  0  1  0  0  0  0  0  0  0  0  0
    7.7689    0.5684   -2.2202 O   0  0  0  0  0  0  0  0  0  0  0  0
    8.3853   -0.6353   -2.6992 C   0  0  0  0  0  0  0  0  0  0  0  0
    8.5851   -0.6495   -4.2145 C   0  0  0  0  0  0  0  0  0  0  0  0
    9.7395   -0.7537   -2.0043 C   0  0  0  0  0  0  0  0  0  0  0  0
    5.5875   -0.2720   -2.5834 O   0  0  0  0  0  0  0  0  0  0  0  0
    3.1372    1.1637   -0.2828 O   0  0  0  0  0  0  0  0  0  0  0  0
    3.4922   -1.6695   -2.1674 H   0  0  0  0  0  0  0  0  0  0  0  0
    4.5030   -2.2060   -0.8410 H   0  0  0  0  0  0  0  0  0  0  0  0
    5.4915   -0.0960   -0.5061 H   0  0  0  0  0  0  0  0  0  0  0  0
    3.2330    0.9946   -2.3284 H   0  0  0  0  0  0  0  0  0  0  0  0
    4.4132    3.2246   -1.2814 H   0  0  0  0  0  0  0  0  0  0  0  0
    6.6187    3.0019   -2.3401 H   0  0  0  0  0  0  0  0  0  0  0  0
    6.5893    0.9743   -3.8620 H   0  0  0  0  0  0  0  0  0  0  0  0
    7.7740   -1.4950   -2.3988 H   0  0  0  0  0  0  0  0  0  0  0  0
    9.0827    0.2652   -4.5545 H   0  0  0  0  0  0  0  0  0  0  0  0
    7.6271   -0.7102   -4.7406 H   0  0  0  0  0  0  0  0  0  0  0  0
    9.1787   -1.5143   -4.5288 H   0  0  0  0  0  0  0  0  0  0  0  0
   10.3778    0.1034   -2.2444 H   0  0  0  0  0  0  0  0  0  0  0  0
   10.2580   -1.6698   -2.3001 H   0  0  0  0  0  0  0  0  0  0  0  0
    9.6132   -0.7603   -0.9162 H   0  0  0  0  0  0  0  0  0  0  0  0
  1  2  2  0  0  0  0
  2  3  1  0  0  0  0
  2 15  1  0  0  0  0
  3  4  1  0  0  0  0
  4  5  1  0  0  0  0
  4 16  1  0  0  0  0
  4 17  1  0  0  0  0
  5  6  1  0  0  0  0
  5 14  1  0  0  0  0
  5 18  1  1  0  0  0
  6  7  1  0  0  0  0
  6 15  1  0  0  0  0
  6 19  1  6  0  0  0
  7  8  2  0  0  0  0
  7 20  1  0  0  0  0
  8  9  1  0  0  0  0
  8 21  1  0  0  0  0
  9 14  1  0  0  0  0
  9 10  1  0  0  0  0
  9 22  1  6  0  0  0
 10 11  1  0  0  0  0
 11 12  1  0  0  0  0
 11 13  1  0  0  0  0
 11 23  1  0  0  0  0
 12 24  1  0  0  0  0
 12 25  1  0  0  0  0
 12 26  1  0  0  0  0
 13 27  1  0  0  0  0
 13 28  1  0  0  0  0
 13 29  1  0  0  0  0
M  END
$$$$
