
 OpenBabel03182211373D

 33 34  0  0  1  0  0  0  0  0999 V2000
    1.2597   -0.1246   -0.5374 O   0  0  0  0  0  0  0  0  0  0  0  0
    2.3445   -0.0659    0.0430 C   0  0  0  0  0  0  0  0  0  0  0  0
    2.8673    1.1301    0.4340 O   0  0  0  0  0  0  0  0  0  0  0  0
    3.9729    1.2351    1.3379 C   0  0  0  0  0  0  0  0  0  0  0  0
    4.9057    0.0551    1.2624 C   0  0  2  0  0  0  0  0  0  0  0  0
    4.0665   -1.1909    1.3028 C   0  0  2  0  0  0  0  0  0  0  0  0
    4.9425   -2.4749    1.2441 C   0  0  2  0  0  0  0  0  0  0  0  0
    4.0082   -3.5390    1.5382 O   0  0  0  0  0  0  0  0  0  0  0  0
    4.5271   -4.8553    1.5260 C   0  0  0  0  0  0  0  0  0  0  0  0
    6.0903   -2.3432    2.2957 C   0  0  1  0  0  0  0  0  0  0  0  0
    6.9505   -3.4730    2.5012 O   0  0  0  0  0  0  0  0  0  0  0  0
    7.7555   -3.9787    1.4557 C   0  0  0  0  0  0  0  0  0  0  0  0
    6.8029   -0.9501    2.2219 C   0  0  1  0  0  0  0  0  0  0  0  0
    7.5339   -0.7111    1.0149 O   0  0  0  0  0  0  0  0  0  0  0  0
    8.1712    0.5781    1.0196 C   0  0  0  0  0  0  0  0  0  0  0  0
    5.8090    0.0787    2.3645 O   0  0  0  0  0  0  0  0  0  0  0  0
    3.1224   -1.1606    0.2229 O   0  0  0  0  0  0  0  0  0  0  0  0
    3.5704    1.3826    2.3454 H   0  0  0  0  0  0  0  0  0  0  0  0
    4.5198    2.1537    1.0911 H   0  0  0  0  0  0  0  0  0  0  0  0
    5.4337    0.1222    0.3020 H   0  0  0  0  0  0  0  0  0  0  0  0
    3.4859   -1.2287    2.2345 H   0  0  0  0  0  0  0  0  0  0  0  0
    5.3267   -2.6300    0.2305 H   0  0  0  0  0  0  0  0  0  0  0  0
    3.6835   -5.5532    1.5125 H   0  0  0  0  0  0  0  0  0  0  0  0
    5.0856   -5.0479    2.4438 H   0  0  0  0  0  0  0  0  0  0  0  0
    5.1389   -5.0388    0.6399 H   0  0  0  0  0  0  0  0  0  0  0  0
    5.5462   -2.3210    3.2511 H   0  0  0  0  0  0  0  0  0  0  0  0
    7.7016   -5.0753    1.5093 H   0  0  0  0  0  0  0  0  0  0  0  0
    8.8024   -3.7179    1.6369 H   0  0  0  0  0  0  0  0  0  0  0  0
    7.4431   -3.6656    0.4598 H   0  0  0  0  0  0  0  0  0  0  0  0
    7.4994   -0.8796    3.0658 H   0  0  0  0  0  0  0  0  0  0  0  0
    8.3152    0.8991   -0.0176 H   0  0  0  0  0  0  0  0  0  0  0  0
    9.1480    0.5034    1.5013 H   0  0  0  0  0  0  0  0  0  0  0  0
    7.5826    1.3627    1.5153 H   0  0  0  0  0  0  0  0  0  0  0  0
  1  2  2  0  0  0  0
  2  3  1  0  0  0  0
  2 17  1  0  0  0  0
  3  4  1  0  0  0  0
  4  5  1  0  0  0  0
  4 18  1  0  0  0  0
  4 19  1  0  0  0  0
  5  6  1  0  0  0  0
  5 16  1  0  0  0  0
  5 20  1  6  0  0  0
  6  7  1  0  0  0  0
  6 17  1  0  0  0  0
  6 21  1  1  0  0  0
  7  8  1  0  0  0  0
  7 10  1  0  0  0  0
  7 22  1  6  0  0  0
  8  9  1  0  0  0  0
  9 23  1  0  0  0  0
  9 24  1  0  0  0  0
  9 25  1  0  0  0  0
 10 13  1  0  0  0  0
 10 11  1  0  0  0  0
 10 26  1  1  0  0  0
 11 12  1  0  0  0  0
 12 27  1  0  0  0  0
 12 28  1  0  0  0  0
 12 29  1  0  0  0  0
 13 14  1  0  0  0  0
 13 16  1  0  0  0  0
 13 30  1  1  0  0  0
 14 15  1  0  0  0  0
 15 31  1  0  0  0  0
 15 32  1  0  0  0  0
 15 33  1  0  0  0  0
M  END
$$$$
